
---------- Begin Simulation Statistics ----------
final_tick                               1313996550705                       # Number of ticks from beginning of simulation (restored from checkpoints and never reset)
host_inst_rate                                 176934                       # Simulator instruction rate (inst/s)
host_mem_usage                                4553180                       # Number of bytes of host memory used
host_op_rate                                   285038                       # Simulator op (including micro ops) rate (op/s)
host_seconds                                   492.10                       # Real time elapsed on the host
host_tick_rate                               41952397                       # Simulator tick rate (ticks/s)
sim_freq                                 1000000000000                       # Frequency of simulated ticks
sim_insts                                    87069510                       # Number of instructions simulated
sim_ops                                     140267637                       # Number of ops (including micro ops) simulated
sim_seconds                                  0.020645                       # Number of seconds simulated
sim_ticks                                 20644843089                       # Number of ticks simulated
system.cpu0.committedInsts                          2                       # Number of instructions committed
system.cpu0.committedOps                            3                       # Number of ops (including micro ops) committed
system.cpu0.dcache.prefetcher.num_hwpf_issued         7182                       # number of hwpf issued
system.cpu0.dcache.prefetcher.pfBufferHit          409                       # number of redundant prefetches already in prefetch queue
system.cpu0.dcache.prefetcher.pfIdentified         8500                       # number of prefetch candidates identified
system.cpu0.dcache.prefetcher.pfInCache             0                       # number of redundant prefetches already in cache/mshr dropped
system.cpu0.dcache.prefetcher.pfRemovedFull            0                       # number of prefetches dropped due to prefetch queue size
system.cpu0.dcache.prefetcher.pfSpanPage        12980                       # number of prefetches that crossed the page
system.cpu0.dtb.rdAccesses                          1                       # TLB accesses on read requests
system.cpu0.dtb.rdMisses                            0                       # TLB misses on read requests
system.cpu0.dtb.wrAccesses                          0                       # TLB accesses on write requests
system.cpu0.dtb.wrMisses                            0                       # TLB misses on write requests
system.cpu0.idle_fraction                           0                       # Percentage of idle cycles
system.cpu0.itb.rdAccesses                          0                       # TLB accesses on read requests
system.cpu0.itb.rdMisses                            0                       # TLB misses on read requests
system.cpu0.itb.wrAccesses                          3                       # TLB accesses on write requests
system.cpu0.itb.wrMisses                            0                       # TLB misses on write requests
system.cpu0.not_idle_fraction                       1                       # Percentage of non-idle cycles
system.cpu0.numCycles                               4                       # number of cpu cycles simulated
system.cpu0.numWorkItemsCompleted                   0                       # number of work items this cpu completed
system.cpu0.numWorkItemsStarted                     0                       # number of work items this cpu started
system.cpu0.num_busy_cycles                         4                       # Number of busy cycles
system.cpu0.num_cc_register_writes                  2                       # number of times the CC registers were written
system.cpu0.num_conditional_control_insts            0                       # number of instructions that are conditional controls
system.cpu0.num_fp_alu_accesses                     0                       # Number of float alu accesses
system.cpu0.num_fp_insts                            0                       # number of float instructions
system.cpu0.num_fp_register_reads                   0                       # number of times the floating registers were read
system.cpu0.num_fp_register_writes                  0                       # number of times the floating registers were written
system.cpu0.num_func_calls                          0                       # number of times a function call or return occured
system.cpu0.num_idle_cycles                         0                       # Number of idle cycles
system.cpu0.num_int_alu_accesses                    3                       # Number of integer alu accesses
system.cpu0.num_int_insts                           3                       # number of integer instructions
system.cpu0.num_int_register_reads                  7                       # number of times the integer registers were read
system.cpu0.num_int_register_writes                 3                       # number of times the integer registers were written
system.cpu0.num_load_insts                          1                       # Number of load instructions
system.cpu0.num_mem_refs                            1                       # number of memory refs
system.cpu0.num_store_insts                         0                       # Number of store instructions
system.cpu0.num_vec_alu_accesses                    0                       # Number of vector alu accesses
system.cpu0.num_vec_insts                           0                       # number of vector instructions
system.cpu0.num_vec_register_reads                  0                       # number of times the vector registers were read
system.cpu0.num_vec_register_writes                 0                       # number of times the vector registers were written
system.cpu0.op_class::No_OpClass                    0      0.00%      0.00% # Class of executed instruction
system.cpu0.op_class::IntAlu                        2     66.67%     66.67% # Class of executed instruction
system.cpu0.op_class::IntMult                       0      0.00%     66.67% # Class of executed instruction
system.cpu0.op_class::IntDiv                        0      0.00%     66.67% # Class of executed instruction
system.cpu0.op_class::FloatAdd                      0      0.00%     66.67% # Class of executed instruction
system.cpu0.op_class::FloatCmp                      0      0.00%     66.67% # Class of executed instruction
system.cpu0.op_class::FloatCvt                      0      0.00%     66.67% # Class of executed instruction
system.cpu0.op_class::FloatMult                     0      0.00%     66.67% # Class of executed instruction
system.cpu0.op_class::FloatMultAcc                  0      0.00%     66.67% # Class of executed instruction
system.cpu0.op_class::FloatDiv                      0      0.00%     66.67% # Class of executed instruction
system.cpu0.op_class::FloatMisc                     0      0.00%     66.67% # Class of executed instruction
system.cpu0.op_class::FloatSqrt                     0      0.00%     66.67% # Class of executed instruction
system.cpu0.op_class::SimdAdd                       0      0.00%     66.67% # Class of executed instruction
system.cpu0.op_class::SimdAddAcc                    0      0.00%     66.67% # Class of executed instruction
system.cpu0.op_class::SimdAlu                       0      0.00%     66.67% # Class of executed instruction
system.cpu0.op_class::SimdCmp                       0      0.00%     66.67% # Class of executed instruction
system.cpu0.op_class::SimdCvt                       0      0.00%     66.67% # Class of executed instruction
system.cpu0.op_class::SimdMisc                      0      0.00%     66.67% # Class of executed instruction
system.cpu0.op_class::SimdMult                      0      0.00%     66.67% # Class of executed instruction
system.cpu0.op_class::SimdMultAcc                   0      0.00%     66.67% # Class of executed instruction
system.cpu0.op_class::SimdShift                     0      0.00%     66.67% # Class of executed instruction
system.cpu0.op_class::SimdShiftAcc                  0      0.00%     66.67% # Class of executed instruction
system.cpu0.op_class::SimdDiv                       0      0.00%     66.67% # Class of executed instruction
system.cpu0.op_class::SimdSqrt                      0      0.00%     66.67% # Class of executed instruction
system.cpu0.op_class::SimdFloatAdd                  0      0.00%     66.67% # Class of executed instruction
system.cpu0.op_class::SimdFloatAlu                  0      0.00%     66.67% # Class of executed instruction
system.cpu0.op_class::SimdFloatCmp                  0      0.00%     66.67% # Class of executed instruction
system.cpu0.op_class::SimdFloatCvt                  0      0.00%     66.67% # Class of executed instruction
system.cpu0.op_class::SimdFloatDiv                  0      0.00%     66.67% # Class of executed instruction
system.cpu0.op_class::SimdFloatMisc                 0      0.00%     66.67% # Class of executed instruction
system.cpu0.op_class::SimdFloatMult                 0      0.00%     66.67% # Class of executed instruction
system.cpu0.op_class::SimdFloatMultAcc              0      0.00%     66.67% # Class of executed instruction
system.cpu0.op_class::SimdFloatSqrt                 0      0.00%     66.67% # Class of executed instruction
system.cpu0.op_class::SimdReduceAdd                 0      0.00%     66.67% # Class of executed instruction
system.cpu0.op_class::SimdReduceAlu                 0      0.00%     66.67% # Class of executed instruction
system.cpu0.op_class::SimdReduceCmp                 0      0.00%     66.67% # Class of executed instruction
system.cpu0.op_class::SimdFloatReduceAdd            0      0.00%     66.67% # Class of executed instruction
system.cpu0.op_class::SimdFloatReduceCmp            0      0.00%     66.67% # Class of executed instruction
system.cpu0.op_class::SimdAes                       0      0.00%     66.67% # Class of executed instruction
system.cpu0.op_class::SimdAesMix                    0      0.00%     66.67% # Class of executed instruction
system.cpu0.op_class::SimdSha1Hash                  0      0.00%     66.67% # Class of executed instruction
system.cpu0.op_class::SimdSha1Hash2                 0      0.00%     66.67% # Class of executed instruction
system.cpu0.op_class::SimdSha256Hash                0      0.00%     66.67% # Class of executed instruction
system.cpu0.op_class::SimdSha256Hash2               0      0.00%     66.67% # Class of executed instruction
system.cpu0.op_class::SimdShaSigma2                 0      0.00%     66.67% # Class of executed instruction
system.cpu0.op_class::SimdShaSigma3                 0      0.00%     66.67% # Class of executed instruction
system.cpu0.op_class::SimdPredAlu                   0      0.00%     66.67% # Class of executed instruction
system.cpu0.op_class::MemRead                       1     33.33%    100.00% # Class of executed instruction
system.cpu0.op_class::MemWrite                      0      0.00%    100.00% # Class of executed instruction
system.cpu0.op_class::FloatMemRead                  0      0.00%    100.00% # Class of executed instruction
system.cpu0.op_class::FloatMemWrite                 0      0.00%    100.00% # Class of executed instruction
system.cpu0.op_class::IprAccess                     0      0.00%    100.00% # Class of executed instruction
system.cpu0.op_class::InstPrefetch                  0      0.00%    100.00% # Class of executed instruction
system.cpu0.op_class::total                         3                       # Class of executed instruction
system.cpu0.toL2Bus.snoop_filter.hit_multi_requests          125                       # Number of requests hitting in the snoop filter with multiple (>1) holders of the requested data.
system.cpu0.toL2Bus.snoop_filter.hit_multi_snoops            0                       # Number of snoops hitting in the snoop filter with multiple (>1) holders of the requested data.
system.cpu0.toL2Bus.snoop_filter.hit_single_requests        50027                       # Number of requests hitting in the snoop filter with a single holder of the requested data.
system.cpu0.toL2Bus.snoop_filter.hit_single_snoops          612                       # Number of snoops hitting in the snoop filter with a single holder of the requested data.
system.cpu0.toL2Bus.snoop_filter.tot_requests       101072                       # Total number of requests made to the snoop filter.
system.cpu0.toL2Bus.snoop_filter.tot_snoops          612                       # Total number of snoops made to the snoop filter.
system.cpu0.toL3Bus.snoop_filter.hit_multi_requests            0                       # Number of requests hitting in the snoop filter with multiple (>1) holders of the requested data.
system.cpu0.toL3Bus.snoop_filter.hit_multi_snoops            0                       # Number of snoops hitting in the snoop filter with multiple (>1) holders of the requested data.
system.cpu0.toL3Bus.snoop_filter.hit_single_requests        15961                       # Number of requests hitting in the snoop filter with a single holder of the requested data.
system.cpu0.toL3Bus.snoop_filter.hit_single_snoops            0                       # Number of snoops hitting in the snoop filter with a single holder of the requested data.
system.cpu0.toL3Bus.snoop_filter.tot_requests        36168                       # Total number of requests made to the snoop filter.
system.cpu0.toL3Bus.snoop_filter.tot_snoops            0                       # Total number of snoops made to the snoop filter.
system.cpu0.workload.numSyscalls                    1                       # Number of system calls
system.cpu1.Branches                                1                       # Number of branches fetched
system.cpu1.committedInsts                          1                       # Number of instructions committed
system.cpu1.committedOps                            5                       # Number of ops (including micro ops) committed
system.cpu1.dcache.prefetcher.num_hwpf_issued          115                       # number of hwpf issued
system.cpu1.dcache.prefetcher.pfBufferHit            0                       # number of redundant prefetches already in prefetch queue
system.cpu1.dcache.prefetcher.pfIdentified          115                       # number of prefetch candidates identified
system.cpu1.dcache.prefetcher.pfInCache             0                       # number of redundant prefetches already in cache/mshr dropped
system.cpu1.dcache.prefetcher.pfRemovedFull            0                       # number of prefetches dropped due to prefetch queue size
system.cpu1.dcache.prefetcher.pfSpanPage            1                       # number of prefetches that crossed the page
system.cpu1.dtb.rdAccesses                          0                       # TLB accesses on read requests
system.cpu1.dtb.rdMisses                            0                       # TLB misses on read requests
system.cpu1.dtb.wrAccesses                          1                       # TLB accesses on write requests
system.cpu1.dtb.wrMisses                            0                       # TLB misses on write requests
system.cpu1.idle_fraction                           0                       # Percentage of idle cycles
system.cpu1.itb.rdAccesses                          0                       # TLB accesses on read requests
system.cpu1.itb.rdMisses                            0                       # TLB misses on read requests
system.cpu1.itb.wrAccesses                          2                       # TLB accesses on write requests
system.cpu1.itb.wrMisses                            0                       # TLB misses on write requests
system.cpu1.not_idle_fraction                       1                       # Percentage of non-idle cycles
system.cpu1.numCycles                               6                       # number of cpu cycles simulated
system.cpu1.numWorkItemsCompleted                   0                       # number of work items this cpu completed
system.cpu1.numWorkItemsStarted                     0                       # number of work items this cpu started
system.cpu1.num_busy_cycles                         6                       # Number of busy cycles
system.cpu1.num_conditional_control_insts            0                       # number of instructions that are conditional controls
system.cpu1.num_fp_alu_accesses                     0                       # Number of float alu accesses
system.cpu1.num_fp_insts                            0                       # number of float instructions
system.cpu1.num_fp_register_reads                   0                       # number of times the floating registers were read
system.cpu1.num_fp_register_writes                  0                       # number of times the floating registers were written
system.cpu1.num_func_calls                          1                       # number of times a function call or return occured
system.cpu1.num_idle_cycles                         0                       # Number of idle cycles
system.cpu1.num_int_alu_accesses                    5                       # Number of integer alu accesses
system.cpu1.num_int_insts                           5                       # number of integer instructions
system.cpu1.num_int_register_reads                  9                       # number of times the integer registers were read
system.cpu1.num_int_register_writes                 3                       # number of times the integer registers were written
system.cpu1.num_load_insts                          0                       # Number of load instructions
system.cpu1.num_mem_refs                            1                       # number of memory refs
system.cpu1.num_store_insts                         1                       # Number of store instructions
system.cpu1.num_vec_alu_accesses                    0                       # Number of vector alu accesses
system.cpu1.num_vec_insts                           0                       # number of vector instructions
system.cpu1.num_vec_register_reads                  0                       # number of times the vector registers were read
system.cpu1.num_vec_register_writes                 0                       # number of times the vector registers were written
system.cpu1.op_class::No_OpClass                    0      0.00%      0.00% # Class of executed instruction
system.cpu1.op_class::IntAlu                        4     80.00%     80.00% # Class of executed instruction
system.cpu1.op_class::IntMult                       0      0.00%     80.00% # Class of executed instruction
system.cpu1.op_class::IntDiv                        0      0.00%     80.00% # Class of executed instruction
system.cpu1.op_class::FloatAdd                      0      0.00%     80.00% # Class of executed instruction
system.cpu1.op_class::FloatCmp                      0      0.00%     80.00% # Class of executed instruction
system.cpu1.op_class::FloatCvt                      0      0.00%     80.00% # Class of executed instruction
system.cpu1.op_class::FloatMult                     0      0.00%     80.00% # Class of executed instruction
system.cpu1.op_class::FloatMultAcc                  0      0.00%     80.00% # Class of executed instruction
system.cpu1.op_class::FloatDiv                      0      0.00%     80.00% # Class of executed instruction
system.cpu1.op_class::FloatMisc                     0      0.00%     80.00% # Class of executed instruction
system.cpu1.op_class::FloatSqrt                     0      0.00%     80.00% # Class of executed instruction
system.cpu1.op_class::SimdAdd                       0      0.00%     80.00% # Class of executed instruction
system.cpu1.op_class::SimdAddAcc                    0      0.00%     80.00% # Class of executed instruction
system.cpu1.op_class::SimdAlu                       0      0.00%     80.00% # Class of executed instruction
system.cpu1.op_class::SimdCmp                       0      0.00%     80.00% # Class of executed instruction
system.cpu1.op_class::SimdCvt                       0      0.00%     80.00% # Class of executed instruction
system.cpu1.op_class::SimdMisc                      0      0.00%     80.00% # Class of executed instruction
system.cpu1.op_class::SimdMult                      0      0.00%     80.00% # Class of executed instruction
system.cpu1.op_class::SimdMultAcc                   0      0.00%     80.00% # Class of executed instruction
system.cpu1.op_class::SimdShift                     0      0.00%     80.00% # Class of executed instruction
system.cpu1.op_class::SimdShiftAcc                  0      0.00%     80.00% # Class of executed instruction
system.cpu1.op_class::SimdDiv                       0      0.00%     80.00% # Class of executed instruction
system.cpu1.op_class::SimdSqrt                      0      0.00%     80.00% # Class of executed instruction
system.cpu1.op_class::SimdFloatAdd                  0      0.00%     80.00% # Class of executed instruction
system.cpu1.op_class::SimdFloatAlu                  0      0.00%     80.00% # Class of executed instruction
system.cpu1.op_class::SimdFloatCmp                  0      0.00%     80.00% # Class of executed instruction
system.cpu1.op_class::SimdFloatCvt                  0      0.00%     80.00% # Class of executed instruction
system.cpu1.op_class::SimdFloatDiv                  0      0.00%     80.00% # Class of executed instruction
system.cpu1.op_class::SimdFloatMisc                 0      0.00%     80.00% # Class of executed instruction
system.cpu1.op_class::SimdFloatMult                 0      0.00%     80.00% # Class of executed instruction
system.cpu1.op_class::SimdFloatMultAcc              0      0.00%     80.00% # Class of executed instruction
system.cpu1.op_class::SimdFloatSqrt                 0      0.00%     80.00% # Class of executed instruction
system.cpu1.op_class::SimdReduceAdd                 0      0.00%     80.00% # Class of executed instruction
system.cpu1.op_class::SimdReduceAlu                 0      0.00%     80.00% # Class of executed instruction
system.cpu1.op_class::SimdReduceCmp                 0      0.00%     80.00% # Class of executed instruction
system.cpu1.op_class::SimdFloatReduceAdd            0      0.00%     80.00% # Class of executed instruction
system.cpu1.op_class::SimdFloatReduceCmp            0      0.00%     80.00% # Class of executed instruction
system.cpu1.op_class::SimdAes                       0      0.00%     80.00% # Class of executed instruction
system.cpu1.op_class::SimdAesMix                    0      0.00%     80.00% # Class of executed instruction
system.cpu1.op_class::SimdSha1Hash                  0      0.00%     80.00% # Class of executed instruction
system.cpu1.op_class::SimdSha1Hash2                 0      0.00%     80.00% # Class of executed instruction
system.cpu1.op_class::SimdSha256Hash                0      0.00%     80.00% # Class of executed instruction
system.cpu1.op_class::SimdSha256Hash2               0      0.00%     80.00% # Class of executed instruction
system.cpu1.op_class::SimdShaSigma2                 0      0.00%     80.00% # Class of executed instruction
system.cpu1.op_class::SimdShaSigma3                 0      0.00%     80.00% # Class of executed instruction
system.cpu1.op_class::SimdPredAlu                   0      0.00%     80.00% # Class of executed instruction
system.cpu1.op_class::MemRead                       0      0.00%     80.00% # Class of executed instruction
system.cpu1.op_class::MemWrite                      1     20.00%    100.00% # Class of executed instruction
system.cpu1.op_class::FloatMemRead                  0      0.00%    100.00% # Class of executed instruction
system.cpu1.op_class::FloatMemWrite                 0      0.00%    100.00% # Class of executed instruction
system.cpu1.op_class::IprAccess                     0      0.00%    100.00% # Class of executed instruction
system.cpu1.op_class::InstPrefetch                  0      0.00%    100.00% # Class of executed instruction
system.cpu1.op_class::total                         5                       # Class of executed instruction
system.cpu1.toL2Bus.snoop_filter.hit_multi_requests           31                       # Number of requests hitting in the snoop filter with multiple (>1) holders of the requested data.
system.cpu1.toL2Bus.snoop_filter.hit_multi_snoops            0                       # Number of snoops hitting in the snoop filter with multiple (>1) holders of the requested data.
system.cpu1.toL2Bus.snoop_filter.hit_single_requests        40609                       # Number of requests hitting in the snoop filter with a single holder of the requested data.
system.cpu1.toL2Bus.snoop_filter.hit_single_snoops          329                       # Number of snoops hitting in the snoop filter with a single holder of the requested data.
system.cpu1.toL2Bus.snoop_filter.tot_requests        82013                       # Total number of requests made to the snoop filter.
system.cpu1.toL2Bus.snoop_filter.tot_snoops          329                       # Total number of snoops made to the snoop filter.
system.cpu1.toL3Bus.snoop_filter.hit_multi_requests            0                       # Number of requests hitting in the snoop filter with multiple (>1) holders of the requested data.
system.cpu1.toL3Bus.snoop_filter.hit_multi_snoops            0                       # Number of snoops hitting in the snoop filter with multiple (>1) holders of the requested data.
system.cpu1.toL3Bus.snoop_filter.hit_single_requests        18051                       # Number of requests hitting in the snoop filter with a single holder of the requested data.
system.cpu1.toL3Bus.snoop_filter.hit_single_snoops            0                       # Number of snoops hitting in the snoop filter with a single holder of the requested data.
system.cpu1.toL3Bus.snoop_filter.tot_requests        40519                       # Total number of requests made to the snoop filter.
system.cpu1.toL3Bus.snoop_filter.tot_snoops            0                       # Total number of snoops made to the snoop filter.
system.cpu1.workload.numSyscalls                11940                       # Number of system calls
system.membus.snoop_filter.hit_multi_requests            0                       # Number of requests hitting in the snoop filter with multiple (>1) holders of the requested data.
system.membus.snoop_filter.hit_multi_snoops            0                       # Number of snoops hitting in the snoop filter with multiple (>1) holders of the requested data.
system.membus.snoop_filter.hit_single_requests            0                       # Number of requests hitting in the snoop filter with a single holder of the requested data.
system.membus.snoop_filter.hit_single_snoops            0                       # Number of snoops hitting in the snoop filter with a single holder of the requested data.
system.membus.snoop_filter.tot_requests         42407                       # Total number of requests made to the snoop filter.
system.membus.snoop_filter.tot_snoops               0                       # Total number of snoops made to the snoop filter.
system.switch_cpus0.Branches                    16332                       # Number of branches fetched
system.switch_cpus0.committedInsts             984265                       # Number of instructions committed
system.switch_cpus0.committedOps              1736150                       # Number of ops (including micro ops) committed
system.switch_cpus0.dtb.rdAccesses             371370                       # TLB accesses on read requests
system.switch_cpus0.dtb.rdMisses                   68                       # TLB misses on read requests
system.switch_cpus0.dtb.wrAccesses             107309                       # TLB accesses on write requests
system.switch_cpus0.dtb.wrMisses                    4                       # TLB misses on write requests
system.switch_cpus0.idle_fraction            0.000000                       # Percentage of idle cycles
system.switch_cpus0.itb.rdAccesses                  0                       # TLB accesses on read requests
system.switch_cpus0.itb.rdMisses                    0                       # TLB misses on read requests
system.switch_cpus0.itb.wrAccesses            1283727                       # TLB accesses on write requests
system.switch_cpus0.itb.wrMisses                    3                       # TLB misses on write requests
system.switch_cpus0.not_idle_fraction        1.000000                       # Percentage of non-idle cycles
system.switch_cpus0.numCycles                 5832088                       # number of cpu cycles simulated
system.switch_cpus0.numWorkItemsCompleted            0                       # number of work items this cpu completed
system.switch_cpus0.numWorkItemsStarted             0                       # number of work items this cpu started
system.switch_cpus0.num_busy_cycles      5832087.293195                       # Number of busy cycles
system.switch_cpus0.num_cc_register_reads       111021                       # number of times the CC registers were read
system.switch_cpus0.num_cc_register_writes       962732                       # number of times the CC registers were written
system.switch_cpus0.num_conditional_control_insts        11666                       # number of instructions that are conditional controls
system.switch_cpus0.num_fp_alu_accesses          7922                       # Number of float alu accesses
system.switch_cpus0.num_fp_insts                 7922                       # number of float instructions
system.switch_cpus0.num_fp_register_reads         9320                       # number of times the floating registers were read
system.switch_cpus0.num_fp_register_writes         6524                       # number of times the floating registers were written
system.switch_cpus0.num_func_calls               2800                       # number of times a function call or return occured
system.switch_cpus0.num_idle_cycles          0.706805                       # Number of idle cycles
system.switch_cpus0.num_int_alu_accesses      1731024                       # Number of integer alu accesses
system.switch_cpus0.num_int_insts             1731024                       # number of integer instructions
system.switch_cpus0.num_int_register_reads      4020020                       # number of times the integer registers were read
system.switch_cpus0.num_int_register_writes      1788355                       # number of times the integer registers were written
system.switch_cpus0.num_load_insts             371346                       # Number of load instructions
system.switch_cpus0.num_mem_refs               478655                       # number of memory refs
system.switch_cpus0.num_store_insts            107309                       # Number of store instructions
system.switch_cpus0.num_vec_alu_accesses            0                       # Number of vector alu accesses
system.switch_cpus0.num_vec_insts                   0                       # number of vector instructions
system.switch_cpus0.num_vec_register_reads            0                       # number of times the vector registers were read
system.switch_cpus0.num_vec_register_writes            0                       # number of times the vector registers were written
system.switch_cpus0.op_class::No_OpClass         1398      0.08%      0.08% # Class of executed instruction
system.switch_cpus0.op_class::IntAlu          1068601     61.55%     61.63% # Class of executed instruction
system.switch_cpus0.op_class::IntMult          183302     10.56%     72.19% # Class of executed instruction
system.switch_cpus0.op_class::IntDiv                0      0.00%     72.19% # Class of executed instruction
system.switch_cpus0.op_class::FloatAdd            932      0.05%     72.24% # Class of executed instruction
system.switch_cpus0.op_class::FloatCmp              0      0.00%     72.24% # Class of executed instruction
system.switch_cpus0.op_class::FloatCvt              0      0.00%     72.24% # Class of executed instruction
system.switch_cpus0.op_class::FloatMult             0      0.00%     72.24% # Class of executed instruction
system.switch_cpus0.op_class::FloatMultAcc            0      0.00%     72.24% # Class of executed instruction
system.switch_cpus0.op_class::FloatDiv              0      0.00%     72.24% # Class of executed instruction
system.switch_cpus0.op_class::FloatMisc             0      0.00%     72.24% # Class of executed instruction
system.switch_cpus0.op_class::FloatSqrt             0      0.00%     72.24% # Class of executed instruction
system.switch_cpus0.op_class::SimdAdd               0      0.00%     72.24% # Class of executed instruction
system.switch_cpus0.op_class::SimdAddAcc            0      0.00%     72.24% # Class of executed instruction
system.switch_cpus0.op_class::SimdAlu               0      0.00%     72.24% # Class of executed instruction
system.switch_cpus0.op_class::SimdCmp               0      0.00%     72.24% # Class of executed instruction
system.switch_cpus0.op_class::SimdCvt               0      0.00%     72.24% # Class of executed instruction
system.switch_cpus0.op_class::SimdMisc            466      0.03%     72.27% # Class of executed instruction
system.switch_cpus0.op_class::SimdMult              0      0.00%     72.27% # Class of executed instruction
system.switch_cpus0.op_class::SimdMultAcc            0      0.00%     72.27% # Class of executed instruction
system.switch_cpus0.op_class::SimdShift             0      0.00%     72.27% # Class of executed instruction
system.switch_cpus0.op_class::SimdShiftAcc            0      0.00%     72.27% # Class of executed instruction
system.switch_cpus0.op_class::SimdDiv               0      0.00%     72.27% # Class of executed instruction
system.switch_cpus0.op_class::SimdSqrt              0      0.00%     72.27% # Class of executed instruction
system.switch_cpus0.op_class::SimdFloatAdd         1398      0.08%     72.35% # Class of executed instruction
system.switch_cpus0.op_class::SimdFloatAlu            0      0.00%     72.35% # Class of executed instruction
system.switch_cpus0.op_class::SimdFloatCmp            0      0.00%     72.35% # Class of executed instruction
system.switch_cpus0.op_class::SimdFloatCvt          466      0.03%     72.38% # Class of executed instruction
system.switch_cpus0.op_class::SimdFloatDiv            0      0.00%     72.38% # Class of executed instruction
system.switch_cpus0.op_class::SimdFloatMisc            0      0.00%     72.38% # Class of executed instruction
system.switch_cpus0.op_class::SimdFloatMult          932      0.05%     72.43% # Class of executed instruction
system.switch_cpus0.op_class::SimdFloatMultAcc            0      0.00%     72.43% # Class of executed instruction
system.switch_cpus0.op_class::SimdFloatSqrt            0      0.00%     72.43% # Class of executed instruction
system.switch_cpus0.op_class::SimdReduceAdd            0      0.00%     72.43% # Class of executed instruction
system.switch_cpus0.op_class::SimdReduceAlu            0      0.00%     72.43% # Class of executed instruction
system.switch_cpus0.op_class::SimdReduceCmp            0      0.00%     72.43% # Class of executed instruction
system.switch_cpus0.op_class::SimdFloatReduceAdd            0      0.00%     72.43% # Class of executed instruction
system.switch_cpus0.op_class::SimdFloatReduceCmp            0      0.00%     72.43% # Class of executed instruction
system.switch_cpus0.op_class::SimdAes               0      0.00%     72.43% # Class of executed instruction
system.switch_cpus0.op_class::SimdAesMix            0      0.00%     72.43% # Class of executed instruction
system.switch_cpus0.op_class::SimdSha1Hash            0      0.00%     72.43% # Class of executed instruction
system.switch_cpus0.op_class::SimdSha1Hash2            0      0.00%     72.43% # Class of executed instruction
system.switch_cpus0.op_class::SimdSha256Hash            0      0.00%     72.43% # Class of executed instruction
system.switch_cpus0.op_class::SimdSha256Hash2            0      0.00%     72.43% # Class of executed instruction
system.switch_cpus0.op_class::SimdShaSigma2            0      0.00%     72.43% # Class of executed instruction
system.switch_cpus0.op_class::SimdShaSigma3            0      0.00%     72.43% # Class of executed instruction
system.switch_cpus0.op_class::SimdPredAlu            0      0.00%     72.43% # Class of executed instruction
system.switch_cpus0.op_class::MemRead          368550     21.23%     93.66% # Class of executed instruction
system.switch_cpus0.op_class::MemWrite         106377      6.13%     99.79% # Class of executed instruction
system.switch_cpus0.op_class::FloatMemRead         2796      0.16%     99.95% # Class of executed instruction
system.switch_cpus0.op_class::FloatMemWrite          932      0.05%    100.00% # Class of executed instruction
system.switch_cpus0.op_class::IprAccess             0      0.00%    100.00% # Class of executed instruction
system.switch_cpus0.op_class::InstPrefetch            0      0.00%    100.00% # Class of executed instruction
system.switch_cpus0.op_class::total           1736150                       # Class of executed instruction
system.switch_cpus1.Branches                   224834                       # Number of branches fetched
system.switch_cpus1.committedInsts            1000001                       # Number of instructions committed
system.switch_cpus1.committedOps              2024684                       # Number of ops (including micro ops) committed
system.switch_cpus1.dtb.rdAccesses             291888                       # TLB accesses on read requests
system.switch_cpus1.dtb.rdMisses                   40                       # TLB misses on read requests
system.switch_cpus1.dtb.wrAccesses             213202                       # TLB accesses on write requests
system.switch_cpus1.dtb.wrMisses                    3                       # TLB misses on write requests
system.switch_cpus1.idle_fraction            0.000000                       # Percentage of idle cycles
system.switch_cpus1.itb.rdAccesses                  0                       # TLB accesses on read requests
system.switch_cpus1.itb.rdMisses                    0                       # TLB misses on read requests
system.switch_cpus1.itb.wrAccesses            1267697                       # TLB accesses on write requests
system.switch_cpus1.itb.wrMisses                   27                       # TLB misses on write requests
system.switch_cpus1.not_idle_fraction        1.000000                       # Percentage of non-idle cycles
system.switch_cpus1.numCycles                 5832088                       # number of cpu cycles simulated
system.switch_cpus1.numWorkItemsCompleted            0                       # number of work items this cpu completed
system.switch_cpus1.numWorkItemsStarted             0                       # number of work items this cpu started
system.switch_cpus1.num_busy_cycles      5832087.293195                       # Number of busy cycles
system.switch_cpus1.num_cc_register_reads       839766                       # number of times the CC registers were read
system.switch_cpus1.num_cc_register_writes       449805                       # number of times the CC registers were written
system.switch_cpus1.num_conditional_control_insts       102459                       # number of instructions that are conditional controls
system.switch_cpus1.num_fp_alu_accesses         16406                       # Number of float alu accesses
system.switch_cpus1.num_fp_insts                16406                       # number of float instructions
system.switch_cpus1.num_fp_register_reads        27540                       # number of times the floating registers were read
system.switch_cpus1.num_fp_register_writes        14430                       # number of times the floating registers were written
system.switch_cpus1.num_func_calls             106054                       # number of times a function call or return occured
system.switch_cpus1.num_idle_cycles          0.706805                       # Number of idle cycles
system.switch_cpus1.num_int_alu_accesses      2003876                       # Number of integer alu accesses
system.switch_cpus1.num_int_insts             2003876                       # number of integer instructions
system.switch_cpus1.num_int_register_reads      4247890                       # number of times the integer registers were read
system.switch_cpus1.num_int_register_writes      1572123                       # number of times the integer registers were written
system.switch_cpus1.num_load_insts             291886                       # Number of load instructions
system.switch_cpus1.num_mem_refs               505086                       # number of memory refs
system.switch_cpus1.num_store_insts            213200                       # Number of store instructions
system.switch_cpus1.num_vec_alu_accesses            0                       # Number of vector alu accesses
system.switch_cpus1.num_vec_insts                   0                       # number of vector instructions
system.switch_cpus1.num_vec_register_reads            0                       # number of times the vector registers were read
system.switch_cpus1.num_vec_register_writes            0                       # number of times the vector registers were written
system.switch_cpus1.op_class::No_OpClass         6797      0.34%      0.34% # Class of executed instruction
system.switch_cpus1.op_class::IntAlu          1497763     73.98%     74.31% # Class of executed instruction
system.switch_cpus1.op_class::IntMult             941      0.05%     74.36% # Class of executed instruction
system.switch_cpus1.op_class::IntDiv             2289      0.11%     74.47% # Class of executed instruction
system.switch_cpus1.op_class::FloatAdd            654      0.03%     74.50% # Class of executed instruction
system.switch_cpus1.op_class::FloatCmp              0      0.00%     74.50% # Class of executed instruction
system.switch_cpus1.op_class::FloatCvt              0      0.00%     74.50% # Class of executed instruction
system.switch_cpus1.op_class::FloatMult             0      0.00%     74.50% # Class of executed instruction
system.switch_cpus1.op_class::FloatMultAcc            0      0.00%     74.50% # Class of executed instruction
system.switch_cpus1.op_class::FloatDiv              0      0.00%     74.50% # Class of executed instruction
system.switch_cpus1.op_class::FloatMisc             0      0.00%     74.50% # Class of executed instruction
system.switch_cpus1.op_class::FloatSqrt             0      0.00%     74.50% # Class of executed instruction
system.switch_cpus1.op_class::SimdAdd               0      0.00%     74.50% # Class of executed instruction
system.switch_cpus1.op_class::SimdAddAcc            0      0.00%     74.50% # Class of executed instruction
system.switch_cpus1.op_class::SimdAlu            2624      0.13%     74.63% # Class of executed instruction
system.switch_cpus1.op_class::SimdCmp               0      0.00%     74.63% # Class of executed instruction
system.switch_cpus1.op_class::SimdCvt            2630      0.13%     74.76% # Class of executed instruction
system.switch_cpus1.op_class::SimdMisc           5900      0.29%     75.05% # Class of executed instruction
system.switch_cpus1.op_class::SimdMult              0      0.00%     75.05% # Class of executed instruction
system.switch_cpus1.op_class::SimdMultAcc            0      0.00%     75.05% # Class of executed instruction
system.switch_cpus1.op_class::SimdShift             0      0.00%     75.05% # Class of executed instruction
system.switch_cpus1.op_class::SimdShiftAcc            0      0.00%     75.05% # Class of executed instruction
system.switch_cpus1.op_class::SimdDiv               0      0.00%     75.05% # Class of executed instruction
system.switch_cpus1.op_class::SimdSqrt              0      0.00%     75.05% # Class of executed instruction
system.switch_cpus1.op_class::SimdFloatAdd            0      0.00%     75.05% # Class of executed instruction
system.switch_cpus1.op_class::SimdFloatAlu            0      0.00%     75.05% # Class of executed instruction
system.switch_cpus1.op_class::SimdFloatCmp            0      0.00%     75.05% # Class of executed instruction
system.switch_cpus1.op_class::SimdFloatCvt            0      0.00%     75.05% # Class of executed instruction
system.switch_cpus1.op_class::SimdFloatDiv            0      0.00%     75.05% # Class of executed instruction
system.switch_cpus1.op_class::SimdFloatMisc            0      0.00%     75.05% # Class of executed instruction
system.switch_cpus1.op_class::SimdFloatMult            0      0.00%     75.05% # Class of executed instruction
system.switch_cpus1.op_class::SimdFloatMultAcc            0      0.00%     75.05% # Class of executed instruction
system.switch_cpus1.op_class::SimdFloatSqrt            0      0.00%     75.05% # Class of executed instruction
system.switch_cpus1.op_class::SimdReduceAdd            0      0.00%     75.05% # Class of executed instruction
system.switch_cpus1.op_class::SimdReduceAlu            0      0.00%     75.05% # Class of executed instruction
system.switch_cpus1.op_class::SimdReduceCmp            0      0.00%     75.05% # Class of executed instruction
system.switch_cpus1.op_class::SimdFloatReduceAdd            0      0.00%     75.05% # Class of executed instruction
system.switch_cpus1.op_class::SimdFloatReduceCmp            0      0.00%     75.05% # Class of executed instruction
system.switch_cpus1.op_class::SimdAes               0      0.00%     75.05% # Class of executed instruction
system.switch_cpus1.op_class::SimdAesMix            0      0.00%     75.05% # Class of executed instruction
system.switch_cpus1.op_class::SimdSha1Hash            0      0.00%     75.05% # Class of executed instruction
system.switch_cpus1.op_class::SimdSha1Hash2            0      0.00%     75.05% # Class of executed instruction
system.switch_cpus1.op_class::SimdSha256Hash            0      0.00%     75.05% # Class of executed instruction
system.switch_cpus1.op_class::SimdSha256Hash2            0      0.00%     75.05% # Class of executed instruction
system.switch_cpus1.op_class::SimdShaSigma2            0      0.00%     75.05% # Class of executed instruction
system.switch_cpus1.op_class::SimdShaSigma3            0      0.00%     75.05% # Class of executed instruction
system.switch_cpus1.op_class::SimdPredAlu            0      0.00%     75.05% # Class of executed instruction
system.switch_cpus1.op_class::MemRead          289904     14.32%     89.37% # Class of executed instruction
system.switch_cpus1.op_class::MemWrite         212546     10.50%     99.87% # Class of executed instruction
system.switch_cpus1.op_class::FloatMemRead         1982      0.10%     99.97% # Class of executed instruction
system.switch_cpus1.op_class::FloatMemWrite          654      0.03%    100.00% # Class of executed instruction
system.switch_cpus1.op_class::IprAccess             0      0.00%    100.00% # Class of executed instruction
system.switch_cpus1.op_class::InstPrefetch            0      0.00%    100.00% # Class of executed instruction
system.switch_cpus1.op_class::total           2024684                       # Class of executed instruction
system.switch_cpus_10.branchPred.BTBCorrect            0                       # Number of correct BTB predictions (this stat may not work properly.
system.switch_cpus_10.branchPred.BTBHitPct     0.000000                       # BTB Hit Percentage
system.switch_cpus_10.branchPred.BTBHits            0                       # Number of BTB hits
system.switch_cpus_10.branchPred.BTBLookups      1116810                       # Number of BTB lookups
system.switch_cpus_10.branchPred.RASInCorrect            7                       # Number of incorrect RAS predictions.
system.switch_cpus_10.branchPred.condIncorrect       112752                       # Number of conditional branches incorrect
system.switch_cpus_10.branchPred.condPredicted       950808                       # Number of conditional branches predicted
system.switch_cpus_10.branchPred.indirectHits       687269                       # Number of indirect target hits.
system.switch_cpus_10.branchPred.indirectLookups      1116810                       # Number of indirect predictor lookups.
system.switch_cpus_10.branchPred.indirectMisses       429541                       # Number of indirect misses.
system.switch_cpus_10.branchPred.lookups      1409342                       # Number of BP lookups
system.switch_cpus_10.branchPred.usedRAS       218149                       # Number of times the RAS was used to get a target.
system.switch_cpus_10.branchPredindirectMispredicted        97014                       # Number of mispredicted indirect branches.
system.switch_cpus_10.cc_regfile_reads       15123848                       # number of cc regfile reads
system.switch_cpus_10.cc_regfile_writes      44076212                       # number of cc regfile writes
system.switch_cpus_10.commit.amos                   0                       # Number of atomic instructions committed
system.switch_cpus_10.commit.branchMispredicts       112752                       # The number of times a branch was mispredicted
system.switch_cpus_10.commit.branches         1078520                       # Number of branches committed
system.switch_cpus_10.commit.bw_lim_events      2096728                       # number cycles where commit BW limit reached
system.switch_cpus_10.commit.commitNonSpecStalls           71                       # The number of times commit has been forced to stall to communicate backwards
system.switch_cpus_10.commit.commitSquashedInsts      3709641                       # The number of squashed insts skipped by commit
system.switch_cpus_10.commit.committedInsts     50000003                       # Number of instructions committed
system.switch_cpus_10.commit.committedOps     65403185                       # Number of ops (including micro ops) committed
system.switch_cpus_10.commit.committed_per_cycle::samples     42869310                       # Number of insts commited each cycle
system.switch_cpus_10.commit.committed_per_cycle::mean     1.525641                       # Number of insts commited each cycle
system.switch_cpus_10.commit.committed_per_cycle::stdev     1.929166                       # Number of insts commited each cycle
system.switch_cpus_10.commit.committed_per_cycle::underflows            0      0.00%      0.00% # Number of insts commited each cycle
system.switch_cpus_10.commit.committed_per_cycle::0     13130876     30.63%     30.63% # Number of insts commited each cycle
system.switch_cpus_10.commit.committed_per_cycle::1     16452116     38.38%     69.01% # Number of insts commited each cycle
system.switch_cpus_10.commit.committed_per_cycle::2      5758296     13.43%     82.44% # Number of insts commited each cycle
system.switch_cpus_10.commit.committed_per_cycle::3      3022963      7.05%     89.49% # Number of insts commited each cycle
system.switch_cpus_10.commit.committed_per_cycle::4      1290935      3.01%     92.50% # Number of insts commited each cycle
system.switch_cpus_10.commit.committed_per_cycle::5       578288      1.35%     93.85% # Number of insts commited each cycle
system.switch_cpus_10.commit.committed_per_cycle::6       237172      0.55%     94.40% # Number of insts commited each cycle
system.switch_cpus_10.commit.committed_per_cycle::7       301936      0.70%     95.11% # Number of insts commited each cycle
system.switch_cpus_10.commit.committed_per_cycle::8      2096728      4.89%    100.00% # Number of insts commited each cycle
system.switch_cpus_10.commit.committed_per_cycle::overflows            0      0.00%    100.00% # Number of insts commited each cycle
system.switch_cpus_10.commit.committed_per_cycle::min_value            0                       # Number of insts commited each cycle
system.switch_cpus_10.commit.committed_per_cycle::max_value            8                       # Number of insts commited each cycle
system.switch_cpus_10.commit.committed_per_cycle::total     42869310                       # Number of insts commited each cycle
system.switch_cpus_10.commit.fp_insts           67043                       # Number of committed floating point instructions.
system.switch_cpus_10.commit.function_calls       188678                       # Number of function calls committed.
system.switch_cpus_10.commit.int_insts       65350541                       # Number of committed integer instructions.
system.switch_cpus_10.commit.loads           10778033                       # Number of loads committed
system.switch_cpus_10.commit.membars                0                       # Number of memory barriers committed
system.switch_cpus_10.commit.op_class_0::No_OpClass        21791      0.03%      0.03% # Class of committed instruction
system.switch_cpus_10.commit.op_class_0::IntAlu     48798807     74.61%     74.65% # Class of committed instruction
system.switch_cpus_10.commit.op_class_0::IntMult       577598      0.88%     75.53% # Class of committed instruction
system.switch_cpus_10.commit.op_class_0::IntDiv           28      0.00%     75.53% # Class of committed instruction
system.switch_cpus_10.commit.op_class_0::FloatAdd        10172      0.02%     75.54% # Class of committed instruction
system.switch_cpus_10.commit.op_class_0::FloatCmp            0      0.00%     75.54% # Class of committed instruction
system.switch_cpus_10.commit.op_class_0::FloatCvt            0      0.00%     75.54% # Class of committed instruction
system.switch_cpus_10.commit.op_class_0::FloatMult            0      0.00%     75.54% # Class of committed instruction
system.switch_cpus_10.commit.op_class_0::FloatMultAcc            0      0.00%     75.54% # Class of committed instruction
system.switch_cpus_10.commit.op_class_0::FloatDiv            0      0.00%     75.54% # Class of committed instruction
system.switch_cpus_10.commit.op_class_0::FloatMisc            0      0.00%     75.54% # Class of committed instruction
system.switch_cpus_10.commit.op_class_0::FloatSqrt            0      0.00%     75.54% # Class of committed instruction
system.switch_cpus_10.commit.op_class_0::SimdAdd            0      0.00%     75.54% # Class of committed instruction
system.switch_cpus_10.commit.op_class_0::SimdAddAcc            0      0.00%     75.54% # Class of committed instruction
system.switch_cpus_10.commit.op_class_0::SimdAlu          538      0.00%     75.55% # Class of committed instruction
system.switch_cpus_10.commit.op_class_0::SimdCmp          170      0.00%     75.55% # Class of committed instruction
system.switch_cpus_10.commit.op_class_0::SimdCvt          696      0.00%     75.55% # Class of committed instruction
system.switch_cpus_10.commit.op_class_0::SimdMisc         5697      0.01%     75.56% # Class of committed instruction
system.switch_cpus_10.commit.op_class_0::SimdMult            0      0.00%     75.56% # Class of committed instruction
system.switch_cpus_10.commit.op_class_0::SimdMultAcc            0      0.00%     75.56% # Class of committed instruction
system.switch_cpus_10.commit.op_class_0::SimdShift            0      0.00%     75.56% # Class of committed instruction
system.switch_cpus_10.commit.op_class_0::SimdShiftAcc            0      0.00%     75.56% # Class of committed instruction
system.switch_cpus_10.commit.op_class_0::SimdDiv            0      0.00%     75.56% # Class of committed instruction
system.switch_cpus_10.commit.op_class_0::SimdSqrt            0      0.00%     75.56% # Class of committed instruction
system.switch_cpus_10.commit.op_class_0::SimdFloatAdd         7005      0.01%     75.57% # Class of committed instruction
system.switch_cpus_10.commit.op_class_0::SimdFloatAlu            0      0.00%     75.57% # Class of committed instruction
system.switch_cpus_10.commit.op_class_0::SimdFloatCmp            2      0.00%     75.57% # Class of committed instruction
system.switch_cpus_10.commit.op_class_0::SimdFloatCvt         4917      0.01%     75.57% # Class of committed instruction
system.switch_cpus_10.commit.op_class_0::SimdFloatDiv           12      0.00%     75.57% # Class of committed instruction
system.switch_cpus_10.commit.op_class_0::SimdFloatMisc            0      0.00%     75.57% # Class of committed instruction
system.switch_cpus_10.commit.op_class_0::SimdFloatMult         5666      0.01%     75.58% # Class of committed instruction
system.switch_cpus_10.commit.op_class_0::SimdFloatMultAcc            0      0.00%     75.58% # Class of committed instruction
system.switch_cpus_10.commit.op_class_0::SimdFloatSqrt            0      0.00%     75.58% # Class of committed instruction
system.switch_cpus_10.commit.op_class_0::SimdReduceAdd            0      0.00%     75.58% # Class of committed instruction
system.switch_cpus_10.commit.op_class_0::SimdReduceAlu            0      0.00%     75.58% # Class of committed instruction
system.switch_cpus_10.commit.op_class_0::SimdReduceCmp            0      0.00%     75.58% # Class of committed instruction
system.switch_cpus_10.commit.op_class_0::SimdFloatReduceAdd            0      0.00%     75.58% # Class of committed instruction
system.switch_cpus_10.commit.op_class_0::SimdFloatReduceCmp            0      0.00%     75.58% # Class of committed instruction
system.switch_cpus_10.commit.op_class_0::SimdAes            0      0.00%     75.58% # Class of committed instruction
system.switch_cpus_10.commit.op_class_0::SimdAesMix            0      0.00%     75.58% # Class of committed instruction
system.switch_cpus_10.commit.op_class_0::SimdSha1Hash            0      0.00%     75.58% # Class of committed instruction
system.switch_cpus_10.commit.op_class_0::SimdSha1Hash2            0      0.00%     75.58% # Class of committed instruction
system.switch_cpus_10.commit.op_class_0::SimdSha256Hash            0      0.00%     75.58% # Class of committed instruction
system.switch_cpus_10.commit.op_class_0::SimdSha256Hash2            0      0.00%     75.58% # Class of committed instruction
system.switch_cpus_10.commit.op_class_0::SimdShaSigma2            0      0.00%     75.58% # Class of committed instruction
system.switch_cpus_10.commit.op_class_0::SimdShaSigma3            0      0.00%     75.58% # Class of committed instruction
system.switch_cpus_10.commit.op_class_0::SimdPredAlu            0      0.00%     75.58% # Class of committed instruction
system.switch_cpus_10.commit.op_class_0::MemRead     10757968     16.45%     92.03% # Class of committed instruction
system.switch_cpus_10.commit.op_class_0::MemWrite      5180289      7.92%     99.95% # Class of committed instruction
system.switch_cpus_10.commit.op_class_0::FloatMemRead        20065      0.03%     99.98% # Class of committed instruction
system.switch_cpus_10.commit.op_class_0::FloatMemWrite        11764      0.02%    100.00% # Class of committed instruction
system.switch_cpus_10.commit.op_class_0::IprAccess            0      0.00%    100.00% # Class of committed instruction
system.switch_cpus_10.commit.op_class_0::InstPrefetch            0      0.00%    100.00% # Class of committed instruction
system.switch_cpus_10.commit.op_class_0::total     65403185                       # Class of committed instruction
system.switch_cpus_10.commit.refs            15970086                       # Number of memory references committed
system.switch_cpus_10.commit.swp_count              0                       # Number of s/w prefetches committed
system.switch_cpus_10.commit.vec_insts              0                       # Number of committed Vector instructions.
system.switch_cpus_10.committedInsts         50000003                       # Number of Instructions Simulated
system.switch_cpus_10.committedOps           65403185                       # Number of Ops (including micro ops) Simulated
system.switch_cpus_10.cpi                    0.873518                       # CPI: Cycles Per Instruction
system.switch_cpus_10.cpi_total              0.873518                       # CPI: Total CPI of All Threads
system.switch_cpus_10.decode.BlockedCycles     29976002                       # Number of cycles decode is blocked
system.switch_cpus_10.decode.DecodedInsts     70487934                       # Number of instructions handled by decode
system.switch_cpus_10.decode.IdleCycles       4043997                       # Number of cycles decode is idle
system.switch_cpus_10.decode.RunCycles        3818598                       # Number of cycles decode is running
system.switch_cpus_10.decode.SquashCycles       118486                       # Number of cycles decode is squashing
system.switch_cpus_10.decode.UnblockCycles      5448065                       # Number of cycles decode is unblocking
system.switch_cpus_10.dtb.rdAccesses         11180426                       # TLB accesses on read requests
system.switch_cpus_10.dtb.rdMisses               3884                       # TLB misses on read requests
system.switch_cpus_10.dtb.wrAccesses          5487657                       # TLB accesses on write requests
system.switch_cpus_10.dtb.wrMisses               1420                       # TLB misses on write requests
system.switch_cpus_10.fetch.Branches          1409342                       # Number of branches that fetch encountered
system.switch_cpus_10.fetch.CacheLines        3824161                       # Number of cache lines fetched
system.switch_cpus_10.fetch.Cycles           35214177                       # Number of cycles fetch has run and was not squashing or blocked
system.switch_cpus_10.fetch.IcacheSquashes        50339                       # Number of outstanding Icache misses that were squashed
system.switch_cpus_10.fetch.IcacheWaitRetryStallCycles          172                       # Number of stall cycles due to full MSHR
system.switch_cpus_10.fetch.Insts            54151565                       # Number of instructions fetch has processed
system.switch_cpus_10.fetch.MiscStallCycles          101                       # Number of cycles fetch has spent waiting on interrupts, or bad addresses, or out of MSHRs
system.switch_cpus_10.fetch.SquashCycles       236972                       # Number of cycles fetch has spent squashing
system.switch_cpus_10.fetch.branchRate       0.032268                       # Number of branch fetches per cycle
system.switch_cpus_10.fetch.icacheStallCycles      8072215                       # Number of cycles fetch is stalled on an Icache miss
system.switch_cpus_10.fetch.predictedBranches       905418                       # Number of branches that fetch has predicted taken
system.switch_cpus_10.fetch.rate             1.239849                       # Number of inst fetches per cycle
system.switch_cpus_10.fetch.rateDist::samples     43405151                       # Number of instructions fetched each cycle (Total)
system.switch_cpus_10.fetch.rateDist::mean     1.661555                       # Number of instructions fetched each cycle (Total)
system.switch_cpus_10.fetch.rateDist::stdev     3.019657                       # Number of instructions fetched each cycle (Total)
system.switch_cpus_10.fetch.rateDist::underflows            0      0.00%      0.00% # Number of instructions fetched each cycle (Total)
system.switch_cpus_10.fetch.rateDist::0      31941287     73.59%     73.59% # Number of instructions fetched each cycle (Total)
system.switch_cpus_10.fetch.rateDist::1        642808      1.48%     75.07% # Number of instructions fetched each cycle (Total)
system.switch_cpus_10.fetch.rateDist::2        673595      1.55%     76.62% # Number of instructions fetched each cycle (Total)
system.switch_cpus_10.fetch.rateDist::3        634841      1.46%     78.08% # Number of instructions fetched each cycle (Total)
system.switch_cpus_10.fetch.rateDist::4        796730      1.84%     79.92% # Number of instructions fetched each cycle (Total)
system.switch_cpus_10.fetch.rateDist::5        765066      1.76%     81.68% # Number of instructions fetched each cycle (Total)
system.switch_cpus_10.fetch.rateDist::6        867858      2.00%     83.68% # Number of instructions fetched each cycle (Total)
system.switch_cpus_10.fetch.rateDist::7        657596      1.52%     85.20% # Number of instructions fetched each cycle (Total)
system.switch_cpus_10.fetch.rateDist::8       6425370     14.80%    100.00% # Number of instructions fetched each cycle (Total)
system.switch_cpus_10.fetch.rateDist::overflows            0      0.00%    100.00% # Number of instructions fetched each cycle (Total)
system.switch_cpus_10.fetch.rateDist::min_value            0                       # Number of instructions fetched each cycle (Total)
system.switch_cpus_10.fetch.rateDist::max_value            8                       # Number of instructions fetched each cycle (Total)
system.switch_cpus_10.fetch.rateDist::total     43405151                       # Number of instructions fetched each cycle (Total)
system.switch_cpus_10.fp_regfile_reads         155103                       # number of floating regfile reads
system.switch_cpus_10.fp_regfile_writes        132805                       # number of floating regfile writes
system.switch_cpus_10.idleCycles               270772                       # Total number of cycles that the CPU has spent unscheduled due to idling
system.switch_cpus_10.iew.branchMispredicts       135236                       # Number of branch mispredicts detected at execute
system.switch_cpus_10.iew.exec_branches       1159305                       # Number of branches executed
system.switch_cpus_10.iew.exec_nop                  0                       # number of nop insts executed
system.switch_cpus_10.iew.exec_rate          1.540146                       # Inst execution rate
system.switch_cpus_10.iew.exec_refs          16670861                       # number of memory reference insts executed
system.switch_cpus_10.iew.exec_stores         5483972                       # Number of stores executed
system.switch_cpus_10.iew.exec_swp                  0                       # number of swp insts executed
system.switch_cpus_10.iew.iewBlockCycles      3634523                       # Number of cycles IEW is blocking
system.switch_cpus_10.iew.iewDispLoadInsts     11414724                       # Number of dispatched load instructions
system.switch_cpus_10.iew.iewDispNonSpecInsts            8                       # Number of dispatched non-speculative instructions
system.switch_cpus_10.iew.iewDispSquashedInsts        76384                       # Number of squashed instructions skipped by dispatch
system.switch_cpus_10.iew.iewDispStoreInsts      5720665                       # Number of dispatched store instructions
system.switch_cpus_10.iew.iewDispatchedInsts     69175570                       # Number of instructions dispatched to IQ
system.switch_cpus_10.iew.iewExecLoadInsts     11186889                       # Number of load instructions executed
system.switch_cpus_10.iew.iewExecSquashedInsts       104918                       # Number of squashed instructions skipped in execute
system.switch_cpus_10.iew.iewExecutedInsts     67267310                       # Number of executed instructions
system.switch_cpus_10.iew.iewIQFullEvents        98299                       # Number of times the IQ has become full, causing a stall
system.switch_cpus_10.iew.iewIdleCycles             0                       # Number of cycles IEW is idle
system.switch_cpus_10.iew.iewLSQFullEvents       219463                       # Number of times the LSQ has become full, causing a stall
system.switch_cpus_10.iew.iewSquashCycles       118486                       # Number of cycles IEW is squashing
system.switch_cpus_10.iew.iewUnblockCycles       321713                       # Number of cycles IEW is unblocking
system.switch_cpus_10.iew.lsq.thread0.blockedLoads            0                       # Number of blocked loads due to partial load-store forwarding
system.switch_cpus_10.iew.lsq.thread0.cacheBlocked          828                       # Number of times an access to memory failed due to the cache being blocked
system.switch_cpus_10.iew.lsq.thread0.forwLoads       580390                       # Number of loads that had data forwarded from stores
system.switch_cpus_10.iew.lsq.thread0.ignoredResponses          791                       # Number of memory responses ignored because the instruction is squashed
system.switch_cpus_10.iew.lsq.thread0.invAddrLoads            0                       # Number of loads ignored due to an invalid address
system.switch_cpus_10.iew.lsq.thread0.invAddrSwpfs            0                       # Number of software prefetches ignored due to an invalid address
system.switch_cpus_10.iew.lsq.thread0.memOrderViolation         1881                       # Number of memory ordering violations
system.switch_cpus_10.iew.lsq.thread0.rescheduledLoads          532                       # Number of loads that were rescheduled
system.switch_cpus_10.iew.lsq.thread0.squashedLoads       636686                       # Number of loads squashed
system.switch_cpus_10.iew.lsq.thread0.squashedStores       528603                       # Number of stores squashed
system.switch_cpus_10.iew.memOrderViolationEvents         1881                       # Number of memory order violations
system.switch_cpus_10.iew.predictedNotTakenIncorrect        92695                       # Number of branches that were predicted not taken incorrectly
system.switch_cpus_10.iew.predictedTakenIncorrect        42541                       # Number of branches that were predicted taken incorrectly
system.switch_cpus_10.iew.wb_consumers      107148200                       # num instructions consuming a value
system.switch_cpus_10.iew.wb_count           67064144                       # cumulative count of insts written-back
system.switch_cpus_10.iew.wb_fanout          0.514046                       # average fanout of values written-back
system.switch_cpus_10.iew.wb_producers       55079072                       # num instructions producing a value
system.switch_cpus_10.iew.wb_rate            1.535495                       # insts written-back per cycle
system.switch_cpus_10.iew.wb_sent            67136616                       # cumulative count of insts sent to commit
system.switch_cpus_10.int_regfile_reads     140289953                       # number of integer regfile reads
system.switch_cpus_10.int_regfile_writes     60853279                       # number of integer regfile writes
system.switch_cpus_10.ipc                    1.144796                       # IPC: Instructions Per Cycle
system.switch_cpus_10.ipc_total              1.144796                       # IPC: Total IPC of All Threads
system.switch_cpus_10.iq.FU_type_0::No_OpClass       100001      0.15%      0.15% # Type of FU issued
system.switch_cpus_10.iq.FU_type_0::IntAlu     49932966     74.12%     74.26% # Type of FU issued
system.switch_cpus_10.iq.FU_type_0::IntMult       592075      0.88%     75.14% # Type of FU issued
system.switch_cpus_10.iq.FU_type_0::IntDiv           42      0.00%     75.14% # Type of FU issued
system.switch_cpus_10.iq.FU_type_0::FloatAdd        10813      0.02%     75.16% # Type of FU issued
system.switch_cpus_10.iq.FU_type_0::FloatCmp            0      0.00%     75.16% # Type of FU issued
system.switch_cpus_10.iq.FU_type_0::FloatCvt            0      0.00%     75.16% # Type of FU issued
system.switch_cpus_10.iq.FU_type_0::FloatMult            0      0.00%     75.16% # Type of FU issued
system.switch_cpus_10.iq.FU_type_0::FloatMultAcc            0      0.00%     75.16% # Type of FU issued
system.switch_cpus_10.iq.FU_type_0::FloatDiv            0      0.00%     75.16% # Type of FU issued
system.switch_cpus_10.iq.FU_type_0::FloatMisc            0      0.00%     75.16% # Type of FU issued
system.switch_cpus_10.iq.FU_type_0::FloatSqrt            0      0.00%     75.16% # Type of FU issued
system.switch_cpus_10.iq.FU_type_0::SimdAdd            0      0.00%     75.16% # Type of FU issued
system.switch_cpus_10.iq.FU_type_0::SimdAddAcc            0      0.00%     75.16% # Type of FU issued
system.switch_cpus_10.iq.FU_type_0::SimdAlu          644      0.00%     75.16% # Type of FU issued
system.switch_cpus_10.iq.FU_type_0::SimdCmp          176      0.00%     75.16% # Type of FU issued
system.switch_cpus_10.iq.FU_type_0::SimdCvt          890      0.00%     75.16% # Type of FU issued
system.switch_cpus_10.iq.FU_type_0::SimdMisc         5774      0.01%     75.17% # Type of FU issued
system.switch_cpus_10.iq.FU_type_0::SimdMult            0      0.00%     75.17% # Type of FU issued
system.switch_cpus_10.iq.FU_type_0::SimdMultAcc            0      0.00%     75.17% # Type of FU issued
system.switch_cpus_10.iq.FU_type_0::SimdShift            0      0.00%     75.17% # Type of FU issued
system.switch_cpus_10.iq.FU_type_0::SimdShiftAcc            0      0.00%     75.17% # Type of FU issued
system.switch_cpus_10.iq.FU_type_0::SimdDiv            0      0.00%     75.17% # Type of FU issued
system.switch_cpus_10.iq.FU_type_0::SimdSqrt            0      0.00%     75.17% # Type of FU issued
system.switch_cpus_10.iq.FU_type_0::SimdFloatAdd         7068      0.01%     75.18% # Type of FU issued
system.switch_cpus_10.iq.FU_type_0::SimdFloatAlu            0      0.00%     75.18% # Type of FU issued
system.switch_cpus_10.iq.FU_type_0::SimdFloatCmp            2      0.00%     75.18% # Type of FU issued
system.switch_cpus_10.iq.FU_type_0::SimdFloatCvt         4961      0.01%     75.19% # Type of FU issued
system.switch_cpus_10.iq.FU_type_0::SimdFloatDiv           18      0.00%     75.19% # Type of FU issued
system.switch_cpus_10.iq.FU_type_0::SimdFloatMisc            0      0.00%     75.19% # Type of FU issued
system.switch_cpus_10.iq.FU_type_0::SimdFloatMult         5685      0.01%     75.20% # Type of FU issued
system.switch_cpus_10.iq.FU_type_0::SimdFloatMultAcc            0      0.00%     75.20% # Type of FU issued
system.switch_cpus_10.iq.FU_type_0::SimdFloatSqrt            0      0.00%     75.20% # Type of FU issued
system.switch_cpus_10.iq.FU_type_0::SimdReduceAdd            0      0.00%     75.20% # Type of FU issued
system.switch_cpus_10.iq.FU_type_0::SimdReduceAlu            0      0.00%     75.20% # Type of FU issued
system.switch_cpus_10.iq.FU_type_0::SimdReduceCmp            0      0.00%     75.20% # Type of FU issued
system.switch_cpus_10.iq.FU_type_0::SimdFloatReduceAdd            0      0.00%     75.20% # Type of FU issued
system.switch_cpus_10.iq.FU_type_0::SimdFloatReduceCmp            0      0.00%     75.20% # Type of FU issued
system.switch_cpus_10.iq.FU_type_0::SimdAes            0      0.00%     75.20% # Type of FU issued
system.switch_cpus_10.iq.FU_type_0::SimdAesMix            0      0.00%     75.20% # Type of FU issued
system.switch_cpus_10.iq.FU_type_0::SimdSha1Hash            0      0.00%     75.20% # Type of FU issued
system.switch_cpus_10.iq.FU_type_0::SimdSha1Hash2            0      0.00%     75.20% # Type of FU issued
system.switch_cpus_10.iq.FU_type_0::SimdSha256Hash            0      0.00%     75.20% # Type of FU issued
system.switch_cpus_10.iq.FU_type_0::SimdSha256Hash2            0      0.00%     75.20% # Type of FU issued
system.switch_cpus_10.iq.FU_type_0::SimdShaSigma2            0      0.00%     75.20% # Type of FU issued
system.switch_cpus_10.iq.FU_type_0::SimdShaSigma3            0      0.00%     75.20% # Type of FU issued
system.switch_cpus_10.iq.FU_type_0::SimdPredAlu            0      0.00%     75.20% # Type of FU issued
system.switch_cpus_10.iq.FU_type_0::MemRead     11112567     16.49%     91.69% # Type of FU issued
system.switch_cpus_10.iq.FU_type_0::MemWrite      5398381      8.01%     99.70% # Type of FU issued
system.switch_cpus_10.iq.FU_type_0::FloatMemRead       104813      0.16%     99.86% # Type of FU issued
system.switch_cpus_10.iq.FU_type_0::FloatMemWrite        95354      0.14%    100.00% # Type of FU issued
system.switch_cpus_10.iq.FU_type_0::IprAccess            0      0.00%    100.00% # Type of FU issued
system.switch_cpus_10.iq.FU_type_0::InstPrefetch            0      0.00%    100.00% # Type of FU issued
system.switch_cpus_10.iq.FU_type_0::total     67372230                       # Type of FU issued
system.switch_cpus_10.iq.fp_alu_accesses       269450                       # Number of floating point alu accesses
system.switch_cpus_10.iq.fp_inst_queue_reads       506888                       # Number of floating instruction queue reads
system.switch_cpus_10.iq.fp_inst_queue_wakeup_accesses       232819                       # Number of floating instruction queue wakeup accesses
system.switch_cpus_10.iq.fp_inst_queue_writes       426537                       # Number of floating instruction queue writes
system.switch_cpus_10.iq.fu_busy_cnt           401462                       # FU busy when requested
system.switch_cpus_10.iq.fu_busy_rate        0.005959                       # FU busy rate (busy events/executed inst)
system.switch_cpus_10.iq.fu_full::No_OpClass            0      0.00%      0.00% # attempts to use FU when none available
system.switch_cpus_10.iq.fu_full::IntAlu       235815     58.74%     58.74% # attempts to use FU when none available
system.switch_cpus_10.iq.fu_full::IntMult            0      0.00%     58.74% # attempts to use FU when none available
system.switch_cpus_10.iq.fu_full::IntDiv            0      0.00%     58.74% # attempts to use FU when none available
system.switch_cpus_10.iq.fu_full::FloatAdd            0      0.00%     58.74% # attempts to use FU when none available
system.switch_cpus_10.iq.fu_full::FloatCmp            0      0.00%     58.74% # attempts to use FU when none available
system.switch_cpus_10.iq.fu_full::FloatCvt            0      0.00%     58.74% # attempts to use FU when none available
system.switch_cpus_10.iq.fu_full::FloatMult            0      0.00%     58.74% # attempts to use FU when none available
system.switch_cpus_10.iq.fu_full::FloatMultAcc            0      0.00%     58.74% # attempts to use FU when none available
system.switch_cpus_10.iq.fu_full::FloatDiv            0      0.00%     58.74% # attempts to use FU when none available
system.switch_cpus_10.iq.fu_full::FloatMisc            0      0.00%     58.74% # attempts to use FU when none available
system.switch_cpus_10.iq.fu_full::FloatSqrt            0      0.00%     58.74% # attempts to use FU when none available
system.switch_cpus_10.iq.fu_full::SimdAdd            0      0.00%     58.74% # attempts to use FU when none available
system.switch_cpus_10.iq.fu_full::SimdAddAcc            0      0.00%     58.74% # attempts to use FU when none available
system.switch_cpus_10.iq.fu_full::SimdAlu           25      0.01%     58.75% # attempts to use FU when none available
system.switch_cpus_10.iq.fu_full::SimdCmp            1      0.00%     58.75% # attempts to use FU when none available
system.switch_cpus_10.iq.fu_full::SimdCvt           27      0.01%     58.75% # attempts to use FU when none available
system.switch_cpus_10.iq.fu_full::SimdMisc           17      0.00%     58.76% # attempts to use FU when none available
system.switch_cpus_10.iq.fu_full::SimdMult            0      0.00%     58.76% # attempts to use FU when none available
system.switch_cpus_10.iq.fu_full::SimdMultAcc            0      0.00%     58.76% # attempts to use FU when none available
[...]
system.cpu1.l2cache.tags.pwrStateResidencyTicks::UNDEFINED 1313996550705                       # Cumulative time (in ticks) in various power states
system.cpu1.l2cache.tags.tagsinuse          56.180899                       # Cycle average of tags in use
system.cpu1.l2cache.tags.total_refs             81978                       # Total number of references to valid blocks.
system.cpu1.l2cache.tags.sampled_refs           22470                       # Sample count of references to valid blocks.
system.cpu1.l2cache.tags.avg_refs            3.648331                       # Average number of references to valid blocks.
system.cpu1.l2cache.tags.warmup_cycle    1293351708033                       # Cycle when the warmup percentage was hit.
system.cpu1.l2cache.tags.occ_blocks::.cpu1.inst     0.003899                       # Average occupied blocks per requestor
system.cpu1.l2cache.tags.occ_blocks::.cpu1.data     0.015711                       # Average occupied blocks per requestor
system.cpu1.l2cache.tags.occ_blocks::.cpu1.dcache.prefetcher     0.070729                       # Average occupied blocks per requestor
system.cpu1.l2cache.tags.occ_blocks::.switch_cpus1.inst     0.726992                       # Average occupied blocks per requestor
system.cpu1.l2cache.tags.occ_blocks::.switch_cpus1.data     9.232582                       # Average occupied blocks per requestor
system.cpu1.l2cache.tags.occ_blocks::.switch_cpus_11.inst     0.191870                       # Average occupied blocks per requestor
system.cpu1.l2cache.tags.occ_blocks::.switch_cpus_11.data    45.939115                       # Average occupied blocks per requestor
system.cpu1.l2cache.tags.occ_percent::.cpu1.inst     0.000001                       # Average percentage of cache occupancy
system.cpu1.l2cache.tags.occ_percent::.cpu1.data     0.000004                       # Average percentage of cache occupancy
system.cpu1.l2cache.tags.occ_percent::.cpu1.dcache.prefetcher     0.000017                       # Average percentage of cache occupancy
system.cpu1.l2cache.tags.occ_percent::.switch_cpus1.inst     0.000177                       # Average percentage of cache occupancy
system.cpu1.l2cache.tags.occ_percent::.switch_cpus1.data     0.002254                       # Average percentage of cache occupancy
system.cpu1.l2cache.tags.occ_percent::.switch_cpus_11.inst     0.000047                       # Average percentage of cache occupancy
system.cpu1.l2cache.tags.occ_percent::.switch_cpus_11.data     0.011216                       # Average percentage of cache occupancy
system.cpu1.l2cache.tags.occ_percent::total     0.013716                       # Average percentage of cache occupancy
system.cpu1.l2cache.tags.occ_task_id_blocks::1022            5                       # Occupied blocks per task id
system.cpu1.l2cache.tags.occ_task_id_blocks::1024         4091                       # Occupied blocks per task id
system.cpu1.l2cache.tags.age_task_id_blocks_1022::3            1                       # Occupied blocks per task id
system.cpu1.l2cache.tags.age_task_id_blocks_1022::4            4                       # Occupied blocks per task id
system.cpu1.l2cache.tags.age_task_id_blocks_1024::0            5                       # Occupied blocks per task id
system.cpu1.l2cache.tags.age_task_id_blocks_1024::1           90                       # Occupied blocks per task id
system.cpu1.l2cache.tags.age_task_id_blocks_1024::2         1193                       # Occupied blocks per task id
system.cpu1.l2cache.tags.age_task_id_blocks_1024::3         2295                       # Occupied blocks per task id
system.cpu1.l2cache.tags.age_task_id_blocks_1024::4          508                       # Occupied blocks per task id
system.cpu1.l2cache.tags.occ_task_id_percent::1022     0.001221                       # Percentage of cache occupancy per task id
system.cpu1.l2cache.tags.occ_task_id_percent::1024     0.998779                       # Percentage of cache occupancy per task id
system.cpu1.l2cache.tags.tag_accesses         1334182                       # Number of tag accesses
system.cpu1.l2cache.tags.data_accesses        1334182                       # Number of data accesses
system.cpu1.toL2Bus.pwrStateResidencyTicks::UNDEFINED 1313996550705                       # Cumulative time (in ticks) in various power states
system.cpu1.toL2Bus.trans_dist::ReadResp        41293                       # Transaction distribution
system.cpu1.toL2Bus.trans_dist::WritebackDirty          132                       # Transaction distribution
system.cpu1.toL2Bus.trans_dist::CleanEvict        58850                       # Transaction distribution
system.cpu1.toL2Bus.trans_dist::ReadExReq          112                       # Transaction distribution
system.cpu1.toL2Bus.trans_dist::ReadExResp          112                       # Transaction distribution
system.cpu1.toL2Bus.trans_dist::ReadCleanReq          285                       # Transaction distribution
system.cpu1.toL2Bus.trans_dist::ReadSharedReq        41008                       # Transaction distribution
system.cpu1.toL2Bus.pkt_count_system.cpu1.icache.mem_side::system.cpu1.l2cache.cpu_side          570                       # Packet count per connected master and slave (bytes)
system.cpu1.toL2Bus.pkt_count_system.cpu1.dcache.mem_side::system.cpu1.l2cache.cpu_side       122848                       # Packet count per connected master and slave (bytes)
system.cpu1.toL2Bus.pkt_count::total           123418                       # Packet count per connected master and slave (bytes)
system.cpu1.toL2Bus.pkt_size_system.cpu1.icache.mem_side::system.cpu1.l2cache.cpu_side        18240                       # Cumulative packet size per connected master and slave (bytes)
system.cpu1.toL2Bus.pkt_size_system.cpu1.dcache.mem_side::system.cpu1.l2cache.cpu_side      2639680                       # Cumulative packet size per connected master and slave (bytes)
system.cpu1.toL2Bus.pkt_size::total           2657920                       # Cumulative packet size per connected master and slave (bytes)
system.cpu1.toL2Bus.snoops                      18374                       # Total snoops (count)
system.cpu1.toL2Bus.snoopTraffic                  448                       # Total snoop traffic (bytes)
system.cpu1.toL2Bus.snoop_fanout::samples        59779                       # Request fanout histogram
system.cpu1.toL2Bus.snoop_fanout::mean       0.006039                       # Request fanout histogram
system.cpu1.toL2Bus.snoop_fanout::stdev      0.077476                       # Request fanout histogram
system.cpu1.toL2Bus.snoop_fanout::underflows            0      0.00%      0.00% # Request fanout histogram
system.cpu1.toL2Bus.snoop_fanout::0             59418     99.40%     99.40% # Request fanout histogram
system.cpu1.toL2Bus.snoop_fanout::1               361      0.60%    100.00% # Request fanout histogram
system.cpu1.toL2Bus.snoop_fanout::2                 0      0.00%    100.00% # Request fanout histogram
system.cpu1.toL2Bus.snoop_fanout::3                 0      0.00%    100.00% # Request fanout histogram
system.cpu1.toL2Bus.snoop_fanout::4                 0      0.00%    100.00% # Request fanout histogram
system.cpu1.toL2Bus.snoop_fanout::overflows            0      0.00%    100.00% # Request fanout histogram
system.cpu1.toL2Bus.snoop_fanout::min_value            0                       # Request fanout histogram
system.cpu1.toL2Bus.snoop_fanout::max_value            1                       # Request fanout histogram
system.cpu1.toL2Bus.snoop_fanout::total         59779                       # Request fanout histogram
system.cpu1.toL2Bus.reqLayer0.occupancy      34327381                       # Layer occupancy (ticks)
system.cpu1.toL2Bus.reqLayer0.utilization          0.2                       # Layer utilization (%)
system.cpu1.toL2Bus.respLayer1.occupancy     51439869                       # Layer occupancy (ticks)
system.cpu1.toL2Bus.respLayer1.utilization          0.2                       # Layer utilization (%)
system.cpu1.toL2Bus.respLayer0.occupancy       355284                       # Layer occupancy (ticks)
system.cpu1.toL2Bus.respLayer0.utilization          0.0                       # Layer utilization (%)
system.switch_cpus_10.pwrStateResidencyTicks::OFF  20644843089                       # Cumulative time (in ticks) in various power states
system.switch_cpus_10.dtb.walker.pwrStateResidencyTicks::UNDEFINED 1313996550705                       # Cumulative time (in ticks) in various power states
system.switch_cpus_10.itb.walker.pwrStateResidencyTicks::UNDEFINED 1313996550705                       # Cumulative time (in ticks) in various power states
system.switch_cpus_11.pwrStateResidencyTicks::OFF  20644843089                       # Cumulative time (in ticks) in various power states
system.switch_cpus_11.dtb.walker.pwrStateResidencyTicks::UNDEFINED 1313996550705                       # Cumulative time (in ticks) in various power states
system.switch_cpus_11.itb.walker.pwrStateResidencyTicks::UNDEFINED 1313996550705                       # Cumulative time (in ticks) in various power states
system.cpu_voltage_domain.voltage                   1                       # Voltage in Volts
system.switch_cpus1.numPwrStateTransitions            1                       # Number of power state transitions
system.switch_cpus1.pwrStateResidencyTicks::UNDEFINED 1293351707616                       # Cumulative time (in ticks) in various power states
system.switch_cpus1.pwrStateResidencyTicks::OFF  20644843089                       # Cumulative time (in ticks) in various power states
system.switch_cpus1.dtb.walker.pwrStateResidencyTicks::UNDEFINED 1313996550705                       # Cumulative time (in ticks) in various power states
system.switch_cpus1.itb.walker.pwrStateResidencyTicks::UNDEFINED 1313996550705                       # Cumulative time (in ticks) in various power states
system.mem_ctrls.pwrStateResidencyTicks::UNDEFINED 1313996550705                       # Cumulative time (in ticks) in various power states
system.mem_ctrls.bytes_read::.cpu0.inst           128                       # Number of bytes read from this memory
system.mem_ctrls.bytes_read::.cpu0.data            64                       # Number of bytes read from this memory
system.mem_ctrls.bytes_read::.cpu0.dcache.prefetcher       341056                       # Number of bytes read from this memory
system.mem_ctrls.bytes_read::.cpu1.inst            64                       # Number of bytes read from this memory
system.mem_ctrls.bytes_read::.cpu1.data            64                       # Number of bytes read from this memory
system.mem_ctrls.bytes_read::.cpu1.dcache.prefetcher          512                       # Number of bytes read from this memory
system.mem_ctrls.bytes_read::.switch_cpus0.inst         2496                       # Number of bytes read from this memory
system.mem_ctrls.bytes_read::.switch_cpus0.data       149120                       # Number of bytes read from this memory
system.mem_ctrls.bytes_read::.switch_cpus1.inst        12672                       # Number of bytes read from this memory
system.mem_ctrls.bytes_read::.switch_cpus1.data        78784                       # Number of bytes read from this memory
system.mem_ctrls.bytes_read::.switch_cpus_10.inst       135232                       # Number of bytes read from this memory
system.mem_ctrls.bytes_read::.switch_cpus_10.data       648960                       # Number of bytes read from this memory
system.mem_ctrls.bytes_read::.switch_cpus_11.inst         5504                       # Number of bytes read from this memory
system.mem_ctrls.bytes_read::.switch_cpus_11.data      1339328                       # Number of bytes read from this memory
system.mem_ctrls.bytes_read::total            2713984                       # Number of bytes read from this memory
system.mem_ctrls.bytes_inst_read::.cpu0.inst          128                       # Number of instructions bytes read from this memory
system.mem_ctrls.bytes_inst_read::.cpu1.inst           64                       # Number of instructions bytes read from this memory
system.mem_ctrls.bytes_inst_read::.switch_cpus0.inst         2496                       # Number of instructions bytes read from this memory
system.mem_ctrls.bytes_inst_read::.switch_cpus1.inst        12672                       # Number of instructions bytes read from this memory
system.mem_ctrls.bytes_inst_read::.switch_cpus_10.inst       135232                       # Number of instructions bytes read from this memory
system.mem_ctrls.bytes_inst_read::.switch_cpus_11.inst         5504                       # Number of instructions bytes read from this memory
system.mem_ctrls.bytes_inst_read::total        156096                       # Number of instructions bytes read from this memory
system.mem_ctrls.num_reads::.cpu0.inst              2                       # Number of read requests responded to by this memory
system.mem_ctrls.num_reads::.cpu0.data              1                       # Number of read requests responded to by this memory
system.mem_ctrls.num_reads::.cpu0.dcache.prefetcher         5329                       # Number of read requests responded to by this memory
system.mem_ctrls.num_reads::.cpu1.inst              1                       # Number of read requests responded to by this memory
system.mem_ctrls.num_reads::.cpu1.data              1                       # Number of read requests responded to by this memory
system.mem_ctrls.num_reads::.cpu1.dcache.prefetcher            8                       # Number of read requests responded to by this memory
system.mem_ctrls.num_reads::.switch_cpus0.inst           39                       # Number of read requests responded to by this memory
system.mem_ctrls.num_reads::.switch_cpus0.data         2330                       # Number of read requests responded to by this memory
system.mem_ctrls.num_reads::.switch_cpus1.inst          198                       # Number of read requests responded to by this memory
system.mem_ctrls.num_reads::.switch_cpus1.data         1231                       # Number of read requests responded to by this memory
system.mem_ctrls.num_reads::.switch_cpus_10.inst         2113                       # Number of read requests responded to by this memory
system.mem_ctrls.num_reads::.switch_cpus_10.data        10140                       # Number of read requests responded to by this memory
system.mem_ctrls.num_reads::.switch_cpus_11.inst           86                       # Number of read requests responded to by this memory
system.mem_ctrls.num_reads::.switch_cpus_11.data        20927                       # Number of read requests responded to by this memory
system.mem_ctrls.num_reads::total               42406                       # Number of read requests responded to by this memory
system.mem_ctrls.bw_read::.cpu0.inst             6200                       # Total read bandwidth from this memory (bytes/s)
system.mem_ctrls.bw_read::.cpu0.data             3100                       # Total read bandwidth from this memory (bytes/s)
system.mem_ctrls.bw_read::.cpu0.dcache.prefetcher     16520155                       # Total read bandwidth from this memory (bytes/s)
system.mem_ctrls.bw_read::.cpu1.inst             3100                       # Total read bandwidth from this memory (bytes/s)
system.mem_ctrls.bw_read::.cpu1.data             3100                       # Total read bandwidth from this memory (bytes/s)
system.mem_ctrls.bw_read::.cpu1.dcache.prefetcher        24800                       # Total read bandwidth from this memory (bytes/s)
system.mem_ctrls.bw_read::.switch_cpus0.inst       120902                       # Total read bandwidth from this memory (bytes/s)
system.mem_ctrls.bw_read::.switch_cpus0.data      7223111                       # Total read bandwidth from this memory (bytes/s)
system.mem_ctrls.bw_read::.switch_cpus1.inst       613809                       # Total read bandwidth from this memory (bytes/s)
system.mem_ctrls.bw_read::.switch_cpus1.data      3816159                       # Total read bandwidth from this memory (bytes/s)
system.mem_ctrls.bw_read::.switch_cpus_10.inst      6550401                       # Total read bandwidth from this memory (bytes/s)
system.mem_ctrls.bw_read::.switch_cpus_10.data     31434484                       # Total read bandwidth from this memory (bytes/s)
system.mem_ctrls.bw_read::.switch_cpus_11.inst       266604                       # Total read bandwidth from this memory (bytes/s)
system.mem_ctrls.bw_read::.switch_cpus_11.data     64874700                       # Total read bandwidth from this memory (bytes/s)
system.mem_ctrls.bw_read::total             131460626                       # Total read bandwidth from this memory (bytes/s)
system.mem_ctrls.bw_inst_read::.cpu0.inst         6200                       # Instruction read bandwidth from this memory (bytes/s)
system.mem_ctrls.bw_inst_read::.cpu1.inst         3100                       # Instruction read bandwidth from this memory (bytes/s)
system.mem_ctrls.bw_inst_read::.switch_cpus0.inst       120902                       # Instruction read bandwidth from this memory (bytes/s)
system.mem_ctrls.bw_inst_read::.switch_cpus1.inst       613809                       # Instruction read bandwidth from this memory (bytes/s)
system.mem_ctrls.bw_inst_read::.switch_cpus_10.inst      6550401                       # Instruction read bandwidth from this memory (bytes/s)
system.mem_ctrls.bw_inst_read::.switch_cpus_11.inst       266604                       # Instruction read bandwidth from this memory (bytes/s)
system.mem_ctrls.bw_inst_read::total          7561017                       # Instruction read bandwidth from this memory (bytes/s)
system.mem_ctrls.bw_total::.cpu0.inst            6200                       # Total bandwidth to/from this memory (bytes/s)
system.mem_ctrls.bw_total::.cpu0.data            3100                       # Total bandwidth to/from this memory (bytes/s)
system.mem_ctrls.bw_total::.cpu0.dcache.prefetcher     16520155                       # Total bandwidth to/from this memory (bytes/s)
system.mem_ctrls.bw_total::.cpu1.inst            3100                       # Total bandwidth to/from this memory (bytes/s)
system.mem_ctrls.bw_total::.cpu1.data            3100                       # Total bandwidth to/from this memory (bytes/s)
system.mem_ctrls.bw_total::.cpu1.dcache.prefetcher        24800                       # Total bandwidth to/from this memory (bytes/s)
system.mem_ctrls.bw_total::.switch_cpus0.inst       120902                       # Total bandwidth to/from this memory (bytes/s)
system.mem_ctrls.bw_total::.switch_cpus0.data      7223111                       # Total bandwidth to/from this memory (bytes/s)
system.mem_ctrls.bw_total::.switch_cpus1.inst       613809                       # Total bandwidth to/from this memory (bytes/s)
system.mem_ctrls.bw_total::.switch_cpus1.data      3816159                       # Total bandwidth to/from this memory (bytes/s)
system.mem_ctrls.bw_total::.switch_cpus_10.inst      6550401                       # Total bandwidth to/from this memory (bytes/s)
system.mem_ctrls.bw_total::.switch_cpus_10.data     31434484                       # Total bandwidth to/from this memory (bytes/s)
system.mem_ctrls.bw_total::.switch_cpus_11.inst       266604                       # Total bandwidth to/from this memory (bytes/s)
system.mem_ctrls.bw_total::.switch_cpus_11.data     64874700                       # Total bandwidth to/from this memory (bytes/s)
system.mem_ctrls.bw_total::total            131460626                       # Total bandwidth to/from this memory (bytes/s)
system.cpu_clk_domain.clock                       417                       # Clock period in ticks

---------- End Simulation Statistics   ----------
