
---------- Begin Simulation Statistics ----------
final_tick                               1314197197761                       # Number of ticks from beginning of simulation (restored from checkpoints and never reset)
host_inst_rate                                 176207                       # Simulator instruction rate (inst/s)
host_mem_usage                                4553180                       # Number of bytes of host memory used
host_op_rate                                   284155                       # Simulator op (including micro ops) rate (op/s)
host_seconds                                   496.05                       # Real time elapsed on the host
host_tick_rate                               42022835                       # Simulator tick rate (ticks/s)
sim_freq                                 1000000000000                       # Frequency of simulated ticks
sim_insts                                    87407826                       # Number of instructions simulated
sim_ops                                     140955628                       # Number of ops (including micro ops) simulated
sim_seconds                                  0.020845                       # Number of seconds simulated
sim_ticks                                 20845490145                       # Number of ticks simulated
system.cpu0.committedInsts                          2                       # Number of instructions committed
system.cpu0.committedOps                            3                       # Number of ops (including micro ops) committed
system.cpu0.dtb.rdAccesses                          1                       # TLB accesses on read requests
system.cpu0.dtb.rdMisses                            0                       # TLB misses on read requests
system.cpu0.dtb.wrAccesses                          0                       # TLB accesses on write requests
system.cpu0.dtb.wrMisses                            0                       # TLB misses on write requests
system.cpu0.idle_fraction                           0                       # Percentage of idle cycles
system.cpu0.itb.rdAccesses                          0                       # TLB accesses on read requests
system.cpu0.itb.rdMisses                            0                       # TLB misses on read requests
system.cpu0.itb.wrAccesses                          3                       # TLB accesses on write requests
system.cpu0.itb.wrMisses                            0                       # TLB misses on write requests
system.cpu0.not_idle_fraction                       1                       # Percentage of non-idle cycles
system.cpu0.numCycles                               4                       # number of cpu cycles simulated
system.cpu0.numWorkItemsCompleted                   0                       # number of work items this cpu completed
system.cpu0.numWorkItemsStarted                     0                       # number of work items this cpu started
system.cpu0.num_busy_cycles                         4                       # Number of busy cycles
system.cpu0.num_cc_register_writes                  2                       # number of times the CC registers were written
system.cpu0.num_conditional_control_insts            0                       # number of instructions that are conditional controls
system.cpu0.num_fp_alu_accesses                     0                       # Number of float alu accesses
system.cpu0.num_fp_insts                            0                       # number of float instructions
system.cpu0.num_fp_register_reads                   0                       # number of times the floating registers were read
system.cpu0.num_fp_register_writes                  0                       # number of times the floating registers were written
system.cpu0.num_func_calls                          0                       # number of times a function call or return occured
system.cpu0.num_idle_cycles                         0                       # Number of idle cycles
system.cpu0.num_int_alu_accesses                    3                       # Number of integer alu accesses
system.cpu0.num_int_insts                           3                       # number of integer instructions
system.cpu0.num_int_register_reads                  7                       # number of times the integer registers were read
system.cpu0.num_int_register_writes                 3                       # number of times the integer registers were written
system.cpu0.num_load_insts                          1                       # Number of load instructions
system.cpu0.num_mem_refs                            1                       # number of memory refs
system.cpu0.num_store_insts                         0                       # Number of store instructions
system.cpu0.num_vec_alu_accesses                    0                       # Number of vector alu accesses
system.cpu0.num_vec_insts                           0                       # number of vector instructions
system.cpu0.num_vec_register_reads                  0                       # number of times the vector registers were read
system.cpu0.num_vec_register_writes                 0                       # number of times the vector registers were written
system.cpu0.op_class::No_OpClass                    0      0.00%      0.00% # Class of executed instruction
system.cpu0.op_class::IntAlu                        2     66.67%     66.67% # Class of executed instruction
system.cpu0.op_class::IntMult                       0      0.00%     66.67% # Class of executed instruction
system.cpu0.op_class::IntDiv                        0      0.00%     66.67% # Class of executed instruction
system.cpu0.op_class::FloatAdd                      0      0.00%     66.67% # Class of executed instruction
system.cpu0.op_class::FloatCmp                      0      0.00%     66.67% # Class of executed instruction
system.cpu0.op_class::FloatCvt                      0      0.00%     66.67% # Class of executed instruction
system.cpu0.op_class::FloatMult                     0      0.00%     66.67% # Class of executed instruction
system.cpu0.op_class::FloatMultAcc                  0      0.00%     66.67% # Class of executed instruction
system.cpu0.op_class::FloatDiv                      0      0.00%     66.67% # Class of executed instruction
system.cpu0.op_class::FloatMisc                     0      0.00%     66.67% # Class of executed instruction
system.cpu0.op_class::FloatSqrt                     0      0.00%     66.67% # Class of executed instruction
system.cpu0.op_class::SimdAdd                       0      0.00%     66.67% # Class of executed instruction
system.cpu0.op_class::SimdAddAcc                    0      0.00%     66.67% # Class of executed instruction
system.cpu0.op_class::SimdAlu                       0      0.00%     66.67% # Class of executed instruction
system.cpu0.op_class::SimdCmp                       0      0.00%     66.67% # Class of executed instruction
system.cpu0.op_class::SimdCvt                       0      0.00%     66.67% # Class of executed instruction
system.cpu0.op_class::SimdMisc                      0      0.00%     66.67% # Class of executed instruction
system.cpu0.op_class::SimdMult                      0      0.00%     66.67% # Class of executed instruction
system.cpu0.op_class::SimdMultAcc                   0      0.00%     66.67% # Class of executed instruction
system.cpu0.op_class::SimdShift                     0      0.00%     66.67% # Class of executed instruction
system.cpu0.op_class::SimdShiftAcc                  0      0.00%     66.67% # Class of executed instruction
system.cpu0.op_class::SimdDiv                       0      0.00%     66.67% # Class of executed instruction
system.cpu0.op_class::SimdSqrt                      0      0.00%     66.67% # Class of executed instruction
system.cpu0.op_class::SimdFloatAdd                  0      0.00%     66.67% # Class of executed instruction
system.cpu0.op_class::SimdFloatAlu                  0      0.00%     66.67% # Class of executed instruction
system.cpu0.op_class::SimdFloatCmp                  0      0.00%     66.67% # Class of executed instruction
system.cpu0.op_class::SimdFloatCvt                  0      0.00%     66.67% # Class of executed instruction
system.cpu0.op_class::SimdFloatDiv                  0      0.00%     66.67% # Class of executed instruction
system.cpu0.op_class::SimdFloatMisc                 0      0.00%     66.67% # Class of executed instruction
system.cpu0.op_class::SimdFloatMult                 0      0.00%     66.67% # Class of executed instruction
system.cpu0.op_class::SimdFloatMultAcc              0      0.00%     66.67% # Class of executed instruction
system.cpu0.op_class::SimdFloatSqrt                 0      0.00%     66.67% # Class of executed instruction
system.cpu0.op_class::SimdReduceAdd                 0      0.00%     66.67% # Class of executed instruction
system.cpu0.op_class::SimdReduceAlu                 0      0.00%     66.67% # Class of executed instruction
system.cpu0.op_class::SimdReduceCmp                 0      0.00%     66.67% # Class of executed instruction
system.cpu0.op_class::SimdFloatReduceAdd            0      0.00%     66.67% # Class of executed instruction
system.cpu0.op_class::SimdFloatReduceCmp            0      0.00%     66.67% # Class of executed instruction
system.cpu0.op_class::SimdAes                       0      0.00%     66.67% # Class of executed instruction
system.cpu0.op_class::SimdAesMix                    0      0.00%     66.67% # Class of executed instruction
system.cpu0.op_class::SimdSha1Hash                  0      0.00%     66.67% # Class of executed instruction
system.cpu0.op_class::SimdSha1Hash2                 0      0.00%     66.67% # Class of executed instruction
system.cpu0.op_class::SimdSha256Hash                0      0.00%     66.67% # Class of executed instruction
system.cpu0.op_class::SimdSha256Hash2               0      0.00%     66.67% # Class of executed instruction
system.cpu0.op_class::SimdShaSigma2                 0      0.00%     66.67% # Class of executed instruction
system.cpu0.op_class::SimdShaSigma3                 0      0.00%     66.67% # Class of executed instruction
system.cpu0.op_class::SimdPredAlu                   0      0.00%     66.67% # Class of executed instruction
system.cpu0.op_class::MemRead                       1     33.33%    100.00% # Class of executed instruction
system.cpu0.op_class::MemWrite                      0      0.00%    100.00% # Class of executed instruction
system.cpu0.op_class::FloatMemRead                  0      0.00%    100.00% # Class of executed instruction
system.cpu0.op_class::FloatMemWrite                 0      0.00%    100.00% # Class of executed instruction
system.cpu0.op_class::IprAccess                     0      0.00%    100.00% # Class of executed instruction
system.cpu0.op_class::InstPrefetch                  0      0.00%    100.00% # Class of executed instruction
system.cpu0.op_class::total                         3                       # Class of executed instruction
system.cpu0.toL2Bus.snoop_filter.hit_multi_requests          135                       # Number of requests hitting in the snoop filter with multiple (>1) holders of the requested data.
system.cpu0.toL2Bus.snoop_filter.hit_multi_snoops            0                       # Number of snoops hitting in the snoop filter with multiple (>1) holders of the requested data.
system.cpu0.toL2Bus.snoop_filter.hit_single_requests        49533                       # Number of requests hitting in the snoop filter with a single holder of the requested data.
system.cpu0.toL2Bus.snoop_filter.hit_single_snoops          587                       # Number of snoops hitting in the snoop filter with a single holder of the requested data.
system.cpu0.toL2Bus.snoop_filter.tot_requests       100080                       # Total number of requests made to the snoop filter.
system.cpu0.toL2Bus.snoop_filter.tot_snoops          587                       # Total number of snoops made to the snoop filter.
system.cpu0.toL3Bus.snoop_filter.hit_multi_requests            0                       # Number of requests hitting in the snoop filter with multiple (>1) holders of the requested data.
system.cpu0.toL3Bus.snoop_filter.hit_multi_snoops            0                       # Number of snoops hitting in the snoop filter with multiple (>1) holders of the requested data.
system.cpu0.toL3Bus.snoop_filter.hit_single_requests        15854                       # Number of requests hitting in the snoop filter with a single holder of the requested data.
system.cpu0.toL3Bus.snoop_filter.hit_single_snoops            0                       # Number of snoops hitting in the snoop filter with a single holder of the requested data.
system.cpu0.toL3Bus.snoop_filter.tot_requests        35939                       # Total number of requests made to the snoop filter.
system.cpu0.toL3Bus.snoop_filter.tot_snoops            0                       # Total number of snoops made to the snoop filter.
system.cpu0.workload.numSyscalls                    1                       # Number of system calls
system.cpu1.Branches                                1                       # Number of branches fetched
system.cpu1.committedInsts                          1                       # Number of instructions committed
system.cpu1.committedOps                            5                       # Number of ops (including micro ops) committed
system.cpu1.dtb.rdAccesses                          0                       # TLB accesses on read requests
system.cpu1.dtb.rdMisses                            0                       # TLB misses on read requests
system.cpu1.dtb.wrAccesses                          1                       # TLB accesses on write requests
system.cpu1.dtb.wrMisses                            0                       # TLB misses on write requests
system.cpu1.idle_fraction                           0                       # Percentage of idle cycles
system.cpu1.itb.rdAccesses                          0                       # TLB accesses on read requests
system.cpu1.itb.rdMisses                            0                       # TLB misses on read requests
system.cpu1.itb.wrAccesses                          2                       # TLB accesses on write requests
system.cpu1.itb.wrMisses                            0                       # TLB misses on write requests
system.cpu1.not_idle_fraction                       1                       # Percentage of non-idle cycles
system.cpu1.numCycles                               6                       # number of cpu cycles simulated
system.cpu1.numWorkItemsCompleted                   0                       # number of work items this cpu completed
system.cpu1.numWorkItemsStarted                     0                       # number of work items this cpu started
system.cpu1.num_busy_cycles                         6                       # Number of busy cycles
system.cpu1.num_conditional_control_insts            0                       # number of instructions that are conditional controls
system.cpu1.num_fp_alu_accesses                     0                       # Number of float alu accesses
system.cpu1.num_fp_insts                            0                       # number of float instructions
system.cpu1.num_fp_register_reads                   0                       # number of times the floating registers were read
system.cpu1.num_fp_register_writes                  0                       # number of times the floating registers were written
system.cpu1.num_func_calls                          1                       # number of times a function call or return occured
system.cpu1.num_idle_cycles                         0                       # Number of idle cycles
system.cpu1.num_int_alu_accesses                    5                       # Number of integer alu accesses
system.cpu1.num_int_insts                           5                       # number of integer instructions
system.cpu1.num_int_register_reads                  9                       # number of times the integer registers were read
system.cpu1.num_int_register_writes                 3                       # number of times the integer registers were written
system.cpu1.num_load_insts                          0                       # Number of load instructions
system.cpu1.num_mem_refs                            1                       # number of memory refs
system.cpu1.num_store_insts                         1                       # Number of store instructions
system.cpu1.num_vec_alu_accesses                    0                       # Number of vector alu accesses
system.cpu1.num_vec_insts                           0                       # number of vector instructions
system.cpu1.num_vec_register_reads                  0                       # number of times the vector registers were read
system.cpu1.num_vec_register_writes                 0                       # number of times the vector registers were written
system.cpu1.op_class::No_OpClass                    0      0.00%      0.00% # Class of executed instruction
system.cpu1.op_class::IntAlu                        4     80.00%     80.00% # Class of executed instruction
system.cpu1.op_class::IntMult                       0      0.00%     80.00% # Class of executed instruction
system.cpu1.op_class::IntDiv                        0      0.00%     80.00% # Class of executed instruction
system.cpu1.op_class::FloatAdd                      0      0.00%     80.00% # Class of executed instruction
system.cpu1.op_class::FloatCmp                      0      0.00%     80.00% # Class of executed instruction
system.cpu1.op_class::FloatCvt                      0      0.00%     80.00% # Class of executed instruction
system.cpu1.op_class::FloatMult                     0      0.00%     80.00% # Class of executed instruction
system.cpu1.op_class::FloatMultAcc                  0      0.00%     80.00% # Class of executed instruction
system.cpu1.op_class::FloatDiv                      0      0.00%     80.00% # Class of executed instruction
system.cpu1.op_class::FloatMisc                     0      0.00%     80.00% # Class of executed instruction
system.cpu1.op_class::FloatSqrt                     0      0.00%     80.00% # Class of executed instruction
system.cpu1.op_class::SimdAdd                       0      0.00%     80.00% # Class of executed instruction
system.cpu1.op_class::SimdAddAcc                    0      0.00%     80.00% # Class of executed instruction
system.cpu1.op_class::SimdAlu                       0      0.00%     80.00% # Class of executed instruction
system.cpu1.op_class::SimdCmp                       0      0.00%     80.00% # Class of executed instruction
system.cpu1.op_class::SimdCvt                       0      0.00%     80.00% # Class of executed instruction
system.cpu1.op_class::SimdMisc                      0      0.00%     80.00% # Class of executed instruction
system.cpu1.op_class::SimdMult                      0      0.00%     80.00% # Class of executed instruction
system.cpu1.op_class::SimdMultAcc                   0      0.00%     80.00% # Class of executed instruction
system.cpu1.op_class::SimdShift                     0      0.00%     80.00% # Class of executed instruction
system.cpu1.op_class::SimdShiftAcc                  0      0.00%     80.00% # Class of executed instruction
system.cpu1.op_class::SimdDiv                       0      0.00%     80.00% # Class of executed instruction
system.cpu1.op_class::SimdSqrt                      0      0.00%     80.00% # Class of executed instruction
system.cpu1.op_class::SimdFloatAdd                  0      0.00%     80.00% # Class of executed instruction
system.cpu1.op_class::SimdFloatAlu                  0      0.00%     80.00% # Class of executed instruction
system.cpu1.op_class::SimdFloatCmp                  0      0.00%     80.00% # Class of executed instruction
system.cpu1.op_class::SimdFloatCvt                  0      0.00%     80.00% # Class of executed instruction
system.cpu1.op_class::SimdFloatDiv                  0      0.00%     80.00% # Class of executed instruction
system.cpu1.op_class::SimdFloatMisc                 0      0.00%     80.00% # Class of executed instruction
system.cpu1.op_class::SimdFloatMult                 0      0.00%     80.00% # Class of executed instruction
system.cpu1.op_class::SimdFloatMultAcc              0      0.00%     80.00% # Class of executed instruction
system.cpu1.op_class::SimdFloatSqrt                 0      0.00%     80.00% # Class of executed instruction
system.cpu1.op_class::SimdReduceAdd                 0      0.00%     80.00% # Class of executed instruction
system.cpu1.op_class::SimdReduceAlu                 0      0.00%     80.00% # Class of executed instruction
system.cpu1.op_class::SimdReduceCmp                 0      0.00%     80.00% # Class of executed instruction
system.cpu1.op_class::SimdFloatReduceAdd            0      0.00%     80.00% # Class of executed instruction
system.cpu1.op_class::SimdFloatReduceCmp            0      0.00%     80.00% # Class of executed instruction
system.cpu1.op_class::SimdAes                       0      0.00%     80.00% # Class of executed instruction
system.cpu1.op_class::SimdAesMix                    0      0.00%     80.00% # Class of executed instruction
system.cpu1.op_class::SimdSha1Hash                  0      0.00%     80.00% # Class of executed instruction
system.cpu1.op_class::SimdSha1Hash2                 0      0.00%     80.00% # Class of executed instruction
system.cpu1.op_class::SimdSha256Hash                0      0.00%     80.00% # Class of executed instruction
system.cpu1.op_class::SimdSha256Hash2               0      0.00%     80.00% # Class of executed instruction
system.cpu1.op_class::SimdShaSigma2                 0      0.00%     80.00% # Class of executed instruction
system.cpu1.op_class::SimdShaSigma3                 0      0.00%     80.00% # Class of executed instruction
system.cpu1.op_class::SimdPredAlu                   0      0.00%     80.00% # Class of executed instruction
system.cpu1.op_class::MemRead                       0      0.00%     80.00% # Class of executed instruction
system.cpu1.op_class::MemWrite                      1     20.00%    100.00% # Class of executed instruction
system.cpu1.op_class::FloatMemRead                  0      0.00%    100.00% # Class of executed instruction
system.cpu1.op_class::FloatMemWrite                 0      0.00%    100.00% # Class of executed instruction
system.cpu1.op_class::IprAccess                     0      0.00%    100.00% # Class of executed instruction
system.cpu1.op_class::InstPrefetch                  0      0.00%    100.00% # Class of executed instruction
system.cpu1.op_class::total                         5                       # Class of executed instruction
system.cpu1.toL2Bus.snoop_filter.hit_multi_requests           32                       # Number of requests hitting in the snoop filter with multiple (>1) holders of the requested data.
system.cpu1.toL2Bus.snoop_filter.hit_multi_snoops            0                       # Number of snoops hitting in the snoop filter with multiple (>1) holders of the requested data.
system.cpu1.toL2Bus.snoop_filter.hit_single_requests        40930                       # Number of requests hitting in the snoop filter with a single holder of the requested data.
system.cpu1.toL2Bus.snoop_filter.hit_single_snoops          331                       # Number of snoops hitting in the snoop filter with a single holder of the requested data.
system.cpu1.toL2Bus.snoop_filter.tot_requests        82656                       # Total number of requests made to the snoop filter.
system.cpu1.toL2Bus.snoop_filter.tot_snoops          331                       # Total number of snoops made to the snoop filter.
system.cpu1.toL3Bus.snoop_filter.hit_multi_requests            0                       # Number of requests hitting in the snoop filter with multiple (>1) holders of the requested data.
system.cpu1.toL3Bus.snoop_filter.hit_multi_snoops            0                       # Number of snoops hitting in the snoop filter with multiple (>1) holders of the requested data.
system.cpu1.toL3Bus.snoop_filter.hit_single_requests        18282                       # Number of requests hitting in the snoop filter with a single holder of the requested data.
system.cpu1.toL3Bus.snoop_filter.hit_single_snoops            0                       # Number of snoops hitting in the snoop filter with a single holder of the requested data.
system.cpu1.toL3Bus.snoop_filter.tot_requests        40983                       # Total number of requests made to the snoop filter.
system.cpu1.toL3Bus.snoop_filter.tot_snoops            0                       # Total number of snoops made to the snoop filter.
system.cpu1.workload.numSyscalls                12062                       # Number of system calls
system.membus.snoop_filter.hit_multi_requests            0                       # Number of requests hitting in the snoop filter with multiple (>1) holders of the requested data.
system.membus.snoop_filter.hit_multi_snoops            0                       # Number of snoops hitting in the snoop filter with multiple (>1) holders of the requested data.
system.membus.snoop_filter.hit_single_requests            0                       # Number of requests hitting in the snoop filter with a single holder of the requested data.
system.membus.snoop_filter.hit_single_snoops            0                       # Number of snoops hitting in the snoop filter with a single holder of the requested data.
system.membus.snoop_filter.tot_requests         42525                       # Total number of requests made to the snoop filter.
system.membus.snoop_filter.tot_snoops               0                       # Total number of snoops made to the snoop filter.
system.switch_cpus0.Branches                    16138                       # Number of branches fetched
system.switch_cpus0.committedInsts             972076                       # Number of instructions committed
system.switch_cpus0.committedOps              1714691                       # Number of ops (including micro ops) committed
system.switch_cpus0.dtb.rdAccesses             366751                       # TLB accesses on read requests
system.switch_cpus0.dtb.rdMisses                   68                       # TLB misses on read requests
system.switch_cpus0.dtb.wrAccesses             105973                       # TLB accesses on write requests
system.switch_cpus0.dtb.wrMisses                    4                       # TLB misses on write requests
system.switch_cpus0.idle_fraction            0.000000                       # Percentage of idle cycles
system.switch_cpus0.itb.rdAccesses                  0                       # TLB accesses on read requests
system.switch_cpus0.itb.rdMisses                    0                       # TLB misses on read requests
system.switch_cpus0.itb.wrAccesses            1267842                       # TLB accesses on write requests
system.switch_cpus0.itb.wrMisses                    3                       # TLB misses on write requests
system.switch_cpus0.not_idle_fraction        1.000000                       # Percentage of non-idle cycles
system.switch_cpus0.numCycles                 5844578                       # number of cpu cycles simulated
system.switch_cpus0.numWorkItemsCompleted            0                       # number of work items this cpu completed
system.switch_cpus0.numWorkItemsStarted             0                       # number of work items this cpu started
system.switch_cpus0.num_busy_cycles      5844577.298499                       # Number of busy cycles
system.switch_cpus0.num_cc_register_reads       109742                       # number of times the CC registers were read
system.switch_cpus0.num_cc_register_writes       950822                       # number of times the CC registers were written
system.switch_cpus0.num_conditional_control_insts        11528                       # number of instructions that are conditional controls
system.switch_cpus0.num_fp_alu_accesses          7837                       # Number of float alu accesses
system.switch_cpus0.num_fp_insts                 7837                       # number of float instructions
system.switch_cpus0.num_fp_register_reads         9220                       # number of times the floating registers were read
system.switch_cpus0.num_fp_register_writes         6454                       # number of times the floating registers were written
system.switch_cpus0.num_func_calls               2766                       # number of times a function call or return occured
system.switch_cpus0.num_idle_cycles          0.701501                       # Number of idle cycles
system.switch_cpus0.num_int_alu_accesses      1709620                       # Number of integer alu accesses
system.switch_cpus0.num_int_insts             1709620                       # number of integer instructions
system.switch_cpus0.num_int_register_reads      3970231                       # number of times the integer registers were read
system.switch_cpus0.num_int_register_writes      1766233                       # number of times the integer registers were written
system.switch_cpus0.num_load_insts             366727                       # Number of load instructions
system.switch_cpus0.num_mem_refs               472700                       # number of memory refs
system.switch_cpus0.num_store_insts            105973                       # Number of store instructions
system.switch_cpus0.num_vec_alu_accesses            0                       # Number of vector alu accesses
system.switch_cpus0.num_vec_insts                   0                       # number of vector instructions
system.switch_cpus0.num_vec_register_reads            0                       # number of times the vector registers were read
system.switch_cpus0.num_vec_register_writes            0                       # number of times the vector registers were written
system.switch_cpus0.op_class::No_OpClass         1383      0.08%      0.08% # Class of executed instruction
system.switch_cpus0.op_class::IntAlu          1055430     61.55%     61.63% # Class of executed instruction
system.switch_cpus0.op_class::IntMult          181029     10.56%     72.19% # Class of executed instruction
system.switch_cpus0.op_class::IntDiv                0      0.00%     72.19% # Class of executed instruction
system.switch_cpus0.op_class::FloatAdd            922      0.05%     72.24% # Class of executed instruction
system.switch_cpus0.op_class::FloatCmp              0      0.00%     72.24% # Class of executed instruction
system.switch_cpus0.op_class::FloatCvt              0      0.00%     72.24% # Class of executed instruction
system.switch_cpus0.op_class::FloatMult             0      0.00%     72.24% # Class of executed instruction
system.switch_cpus0.op_class::FloatMultAcc            0      0.00%     72.24% # Class of executed instruction
system.switch_cpus0.op_class::FloatDiv              0      0.00%     72.24% # Class of executed instruction
system.switch_cpus0.op_class::FloatMisc             0      0.00%     72.24% # Class of executed instruction
system.switch_cpus0.op_class::FloatSqrt             0      0.00%     72.24% # Class of executed instruction
system.switch_cpus0.op_class::SimdAdd               0      0.00%     72.24% # Class of executed instruction
system.switch_cpus0.op_class::SimdAddAcc            0      0.00%     72.24% # Class of executed instruction
system.switch_cpus0.op_class::SimdAlu               0      0.00%     72.24% # Class of executed instruction
system.switch_cpus0.op_class::SimdCmp               0      0.00%     72.24% # Class of executed instruction
system.switch_cpus0.op_class::SimdCvt               0      0.00%     72.24% # Class of executed instruction
system.switch_cpus0.op_class::SimdMisc            461      0.03%     72.27% # Class of executed instruction
system.switch_cpus0.op_class::SimdMult              0      0.00%     72.27% # Class of executed instruction
system.switch_cpus0.op_class::SimdMultAcc            0      0.00%     72.27% # Class of executed instruction
system.switch_cpus0.op_class::SimdShift             0      0.00%     72.27% # Class of executed instruction
system.switch_cpus0.op_class::SimdShiftAcc            0      0.00%     72.27% # Class of executed instruction
system.switch_cpus0.op_class::SimdDiv               0      0.00%     72.27% # Class of executed instruction
system.switch_cpus0.op_class::SimdSqrt              0      0.00%     72.27% # Class of executed instruction
system.switch_cpus0.op_class::SimdFloatAdd         1383      0.08%     72.35% # Class of executed instruction
system.switch_cpus0.op_class::SimdFloatAlu            0      0.00%     72.35% # Class of executed instruction
system.switch_cpus0.op_class::SimdFloatCmp            0      0.00%     72.35% # Class of executed instruction
system.switch_cpus0.op_class::SimdFloatCvt          461      0.03%     72.38% # Class of executed instruction
system.switch_cpus0.op_class::SimdFloatDiv            0      0.00%     72.38% # Class of executed instruction
system.switch_cpus0.op_class::SimdFloatMisc            0      0.00%     72.38% # Class of executed instruction
system.switch_cpus0.op_class::SimdFloatMult          922      0.05%     72.43% # Class of executed instruction
system.switch_cpus0.op_class::SimdFloatMultAcc            0      0.00%     72.43% # Class of executed instruction
system.switch_cpus0.op_class::SimdFloatSqrt            0      0.00%     72.43% # Class of executed instruction
system.switch_cpus0.op_class::SimdReduceAdd            0      0.00%     72.43% # Class of executed instruction
system.switch_cpus0.op_class::SimdReduceAlu            0      0.00%     72.43% # Class of executed instruction
system.switch_cpus0.op_class::SimdReduceCmp            0      0.00%     72.43% # Class of executed instruction
system.switch_cpus0.op_class::SimdFloatReduceAdd            0      0.00%     72.43% # Class of executed instruction
system.switch_cpus0.op_class::SimdFloatReduceCmp            0      0.00%     72.43% # Class of executed instruction
system.switch_cpus0.op_class::SimdAes               0      0.00%     72.43% # Class of executed instruction
system.switch_cpus0.op_class::SimdAesMix            0      0.00%     72.43% # Class of executed instruction
system.switch_cpus0.op_class::SimdSha1Hash            0      0.00%     72.43% # Class of executed instruction
system.switch_cpus0.op_class::SimdSha1Hash2            0      0.00%     72.43% # Class of executed instruction
system.switch_cpus0.op_class::SimdSha256Hash            0      0.00%     72.43% # Class of executed instruction
system.switch_cpus0.op_class::SimdSha256Hash2            0      0.00%     72.43% # Class of executed instruction
system.switch_cpus0.op_class::SimdShaSigma2            0      0.00%     72.43% # Class of executed instruction
system.switch_cpus0.op_class::SimdShaSigma3            0      0.00%     72.43% # Class of executed instruction
system.switch_cpus0.op_class::SimdPredAlu            0      0.00%     72.43% # Class of executed instruction
system.switch_cpus0.op_class::MemRead          363961     21.23%     93.66% # Class of executed instruction
system.switch_cpus0.op_class::MemWrite         105051      6.13%     99.78% # Class of executed instruction
system.switch_cpus0.op_class::FloatMemRead         2766      0.16%     99.95% # Class of executed instruction
system.switch_cpus0.op_class::FloatMemWrite          922      0.05%    100.00% # Class of executed instruction
system.switch_cpus0.op_class::IprAccess             0      0.00%    100.00% # Class of executed instruction
system.switch_cpus0.op_class::InstPrefetch            0      0.00%    100.00% # Class of executed instruction
system.switch_cpus0.op_class::total           1714691                       # Class of executed instruction
system.switch_cpus1.Branches                   224834                       # Number of branches fetched
system.switch_cpus1.committedInsts            1000001                       # Number of instructions committed
system.switch_cpus1.committedOps              2024684                       # Number of ops (including micro ops) committed
system.switch_cpus1.dtb.rdAccesses             291888                       # TLB accesses on read requests
system.switch_cpus1.dtb.rdMisses                   40                       # TLB misses on read requests
system.switch_cpus1.dtb.wrAccesses             213202                       # TLB accesses on write requests
system.switch_cpus1.dtb.wrMisses                    3                       # TLB misses on write requests
system.switch_cpus1.idle_fraction            0.000000                       # Percentage of idle cycles
system.switch_cpus1.itb.rdAccesses                  0                       # TLB accesses on read requests
system.switch_cpus1.itb.rdMisses                    0                       # TLB misses on read requests
system.switch_cpus1.itb.wrAccesses            1267697                       # TLB accesses on write requests
system.switch_cpus1.itb.wrMisses                   27                       # TLB misses on write requests
system.switch_cpus1.not_idle_fraction        1.000000                       # Percentage of non-idle cycles
system.switch_cpus1.numCycles                 5844578                       # number of cpu cycles simulated
system.switch_cpus1.numWorkItemsCompleted            0                       # number of work items this cpu completed
system.switch_cpus1.numWorkItemsStarted             0                       # number of work items this cpu started
system.switch_cpus1.num_busy_cycles      5844577.298499                       # Number of busy cycles
system.switch_cpus1.num_cc_register_reads       839766                       # number of times the CC registers were read
system.switch_cpus1.num_cc_register_writes       449805                       # number of times the CC registers were written
system.switch_cpus1.num_conditional_control_insts       102459                       # number of instructions that are conditional controls
system.switch_cpus1.num_fp_alu_accesses         16406                       # Number of float alu accesses
system.switch_cpus1.num_fp_insts                16406                       # number of float instructions
system.switch_cpus1.num_fp_register_reads        27540                       # number of times the floating registers were read
system.switch_cpus1.num_fp_register_writes        14430                       # number of times the floating registers were written
system.switch_cpus1.num_func_calls             106054                       # number of times a function call or return occured
system.switch_cpus1.num_idle_cycles          0.701501                       # Number of idle cycles
system.switch_cpus1.num_int_alu_accesses      2003876                       # Number of integer alu accesses
system.switch_cpus1.num_int_insts             2003876                       # number of integer instructions
system.switch_cpus1.num_int_register_reads      4247890                       # number of times the integer registers were read
system.switch_cpus1.num_int_register_writes      1572123                       # number of times the integer registers were written
system.switch_cpus1.num_load_insts             291886                       # Number of load instructions
system.switch_cpus1.num_mem_refs               505086                       # number of memory refs
system.switch_cpus1.num_store_insts            213200                       # Number of store instructions
system.switch_cpus1.num_vec_alu_accesses            0                       # Number of vector alu accesses
system.switch_cpus1.num_vec_insts                   0                       # number of vector instructions
system.switch_cpus1.num_vec_register_reads            0                       # number of times the vector registers were read
system.switch_cpus1.num_vec_register_writes            0                       # number of times the vector registers were written
system.switch_cpus1.op_class::No_OpClass         6797      0.34%      0.34% # Class of executed instruction
system.switch_cpus1.op_class::IntAlu          1497763     73.98%     74.31% # Class of executed instruction
system.switch_cpus1.op_class::IntMult             941      0.05%     74.36% # Class of executed instruction
system.switch_cpus1.op_class::IntDiv             2289      0.11%     74.47% # Class of executed instruction
system.switch_cpus1.op_class::FloatAdd            654      0.03%     74.50% # Class of executed instruction
system.switch_cpus1.op_class::FloatCmp              0      0.00%     74.50% # Class of executed instruction
system.switch_cpus1.op_class::FloatCvt              0      0.00%     74.50% # Class of executed instruction
system.switch_cpus1.op_class::FloatMult             0      0.00%     74.50% # Class of executed instruction
system.switch_cpus1.op_class::FloatMultAcc            0      0.00%     74.50% # Class of executed instruction
system.switch_cpus1.op_class::FloatDiv              0      0.00%     74.50% # Class of executed instruction
system.switch_cpus1.op_class::FloatMisc             0      0.00%     74.50% # Class of executed instruction
system.switch_cpus1.op_class::FloatSqrt             0      0.00%     74.50% # Class of executed instruction
system.switch_cpus1.op_class::SimdAdd               0      0.00%     74.50% # Class of executed instruction
system.switch_cpus1.op_class::SimdAddAcc            0      0.00%     74.50% # Class of executed instruction
system.switch_cpus1.op_class::SimdAlu            2624      0.13%     74.63% # Class of executed instruction
system.switch_cpus1.op_class::SimdCmp               0      0.00%     74.63% # Class of executed instruction
system.switch_cpus1.op_class::SimdCvt            2630      0.13%     74.76% # Class of executed instruction
system.switch_cpus1.op_class::SimdMisc           5900      0.29%     75.05% # Class of executed instruction
system.switch_cpus1.op_class::SimdMult              0      0.00%     75.05% # Class of executed instruction
system.switch_cpus1.op_class::SimdMultAcc            0      0.00%     75.05% # Class of executed instruction
system.switch_cpus1.op_class::SimdShift             0      0.00%     75.05% # Class of executed instruction
system.switch_cpus1.op_class::SimdShiftAcc            0      0.00%     75.05% # Class of executed instruction
system.switch_cpus1.op_class::SimdDiv               0      0.00%     75.05% # Class of executed instruction
system.switch_cpus1.op_class::SimdSqrt              0      0.00%     75.05% # Class of executed instruction
system.switch_cpus1.op_class::SimdFloatAdd            0      0.00%     75.05% # Class of executed instruction
system.switch_cpus1.op_class::SimdFloatAlu            0      0.00%     75.05% # Class of executed instruction
system.switch_cpus1.op_class::SimdFloatCmp            0      0.00%     75.05% # Class of executed instruction
system.switch_cpus1.op_class::SimdFloatCvt            0      0.00%     75.05% # Class of executed instruction
system.switch_cpus1.op_class::SimdFloatDiv            0      0.00%     75.05% # Class of executed instruction
system.switch_cpus1.op_class::SimdFloatMisc            0      0.00%     75.05% # Class of executed instruction
system.switch_cpus1.op_class::SimdFloatMult            0      0.00%     75.05% # Class of executed instruction
system.switch_cpus1.op_class::SimdFloatMultAcc            0      0.00%     75.05% # Class of executed instruction
system.switch_cpus1.op_class::SimdFloatSqrt            0      0.00%     75.05% # Class of executed instruction
system.switch_cpus1.op_class::SimdReduceAdd            0      0.00%     75.05% # Class of executed instruction
system.switch_cpus1.op_class::SimdReduceAlu            0      0.00%     75.05% # Class of executed instruction
system.switch_cpus1.op_class::SimdReduceCmp            0      0.00%     75.05% # Class of executed instruction
system.switch_cpus1.op_class::SimdFloatReduceAdd            0      0.00%     75.05% # Class of executed instruction
system.switch_cpus1.op_class::SimdFloatReduceCmp            0      0.00%     75.05% # Class of executed instruction
system.switch_cpus1.op_class::SimdAes               0      0.00%     75.05% # Class of executed instruction
system.switch_cpus1.op_class::SimdAesMix            0      0.00%     75.05% # Class of executed instruction
system.switch_cpus1.op_class::SimdSha1Hash            0      0.00%     75.05% # Class of executed instruction
system.switch_cpus1.op_class::SimdSha1Hash2            0      0.00%     75.05% # Class of executed instruction
system.switch_cpus1.op_class::SimdSha256Hash            0      0.00%     75.05% # Class of executed instruction
system.switch_cpus1.op_class::SimdSha256Hash2            0      0.00%     75.05% # Class of executed instruction
system.switch_cpus1.op_class::SimdShaSigma2            0      0.00%     75.05% # Class of executed instruction
system.switch_cpus1.op_class::SimdShaSigma3            0      0.00%     75.05% # Class of executed instruction
system.switch_cpus1.op_class::SimdPredAlu            0      0.00%     75.05% # Class of executed instruction
system.switch_cpus1.op_class::MemRead          289904     14.32%     89.37% # Class of executed instruction
system.switch_cpus1.op_class::MemWrite         212546     10.50%     99.87% # Class of executed instruction
system.switch_cpus1.op_class::FloatMemRead         1982      0.10%     99.97% # Class of executed instruction
system.switch_cpus1.op_class::FloatMemWrite          654      0.03%    100.00% # Class of executed instruction
system.switch_cpus1.op_class::IprAccess             0      0.00%    100.00% # Class of executed instruction
system.switch_cpus1.op_class::InstPrefetch            0      0.00%    100.00% # Class of executed instruction
system.switch_cpus1.op_class::total           2024684                       # Class of executed instruction
system.switch_cpus_10.branchPred.BTBCorrect            0                       # Number of correct BTB predictions (this stat may not work properly.
system.switch_cpus_10.branchPred.BTBHitPct     0.000000                       # BTB Hit Percentage
system.switch_cpus_10.branchPred.BTBHits            0                       # Number of BTB hits
system.switch_cpus_10.branchPred.BTBLookups      1132255                       # Number of BTB lookups
system.switch_cpus_10.branchPred.RASInCorrect           15                       # Number of incorrect RAS predictions.
system.switch_cpus_10.branchPred.condIncorrect       114635                       # Number of conditional branches incorrect
system.switch_cpus_10.branchPred.condPredicted       957979                       # Number of conditional branches predicted
system.switch_cpus_10.branchPred.indirectHits       686626                       # Number of indirect target hits.
system.switch_cpus_10.branchPred.indirectLookups      1132255                       # Number of indirect predictor lookups.
system.switch_cpus_10.branchPred.indirectMisses       445629                       # Number of indirect misses.
system.switch_cpus_10.branchPred.lookups      1417632                       # Number of BP lookups
system.switch_cpus_10.branchPred.usedRAS       219156                       # Number of times the RAS was used to get a target.
system.switch_cpus_10.branchPredindirectMispredicted        98830                       # Number of mispredicted indirect branches.
system.switch_cpus_10.cc_regfile_reads       15123493                       # number of cc regfile reads
system.switch_cpus_10.cc_regfile_writes      44084417                       # number of cc regfile writes
system.switch_cpus_10.commit.amos                   0                       # Number of atomic instructions committed
system.switch_cpus_10.commit.branchMispredicts       114635                       # The number of times a branch was mispredicted
system.switch_cpus_10.commit.branches         1077610                       # Number of branches committed
system.switch_cpus_10.commit.bw_lim_events      2095918                       # number cycles where commit BW limit reached
system.switch_cpus_10.commit.commitNonSpecStalls           71                       # The number of times commit has been forced to stall to communicate backwards
system.switch_cpus_10.commit.commitSquashedInsts      3798427                       # The number of squashed insts skipped by commit
system.switch_cpus_10.commit.committedInsts     50000001                       # Number of instructions committed
system.switch_cpus_10.commit.committedOps     65405235                       # Number of ops (including micro ops) committed
system.switch_cpus_10.commit.committed_per_cycle::samples     43332809                       # Number of insts commited each cycle
system.switch_cpus_10.commit.committed_per_cycle::mean     1.509370                       # Number of insts commited each cycle
system.switch_cpus_10.commit.committed_per_cycle::stdev     1.924813                       # Number of insts commited each cycle
system.switch_cpus_10.commit.committed_per_cycle::underflows            0      0.00%      0.00% # Number of insts commited each cycle
system.switch_cpus_10.commit.committed_per_cycle::0     13581904     31.34%     31.34% # Number of insts commited each cycle
system.switch_cpus_10.commit.committed_per_cycle::1     16467944     38.00%     69.35% # Number of insts commited each cycle
system.switch_cpus_10.commit.committed_per_cycle::2      5757010     13.29%     82.63% # Number of insts commited each cycle
system.switch_cpus_10.commit.committed_per_cycle::3      3021352      6.97%     89.60% # Number of insts commited each cycle
system.switch_cpus_10.commit.committed_per_cycle::4      1291839      2.98%     92.59% # Number of insts commited each cycle
system.switch_cpus_10.commit.committed_per_cycle::5       578446      1.33%     93.92% # Number of insts commited each cycle
system.switch_cpus_10.commit.committed_per_cycle::6       236487      0.55%     94.47% # Number of insts commited each cycle
system.switch_cpus_10.commit.committed_per_cycle::7       301909      0.70%     95.16% # Number of insts commited each cycle
system.switch_cpus_10.commit.committed_per_cycle::8      2095918      4.84%    100.00% # Number of insts commited each cycle
system.switch_cpus_10.commit.committed_per_cycle::overflows            0      0.00%    100.00% # Number of insts commited each cycle
system.switch_cpus_10.commit.committed_per_cycle::min_value            0                       # Number of insts commited each cycle
system.switch_cpus_10.commit.committed_per_cycle::max_value            8                       # Number of insts commited each cycle
system.switch_cpus_10.commit.committed_per_cycle::total     43332809                       # Number of insts commited each cycle
system.switch_cpus_10.commit.fp_insts           67128                       # Number of committed floating point instructions.
system.switch_cpus_10.commit.function_calls       188693                       # Number of function calls committed.
system.switch_cpus_10.commit.int_insts       65352536                       # Number of committed integer instructions.
system.switch_cpus_10.commit.loads           10779336                       # Number of loads committed
system.switch_cpus_10.commit.membars                0                       # Number of memory barriers committed
system.switch_cpus_10.commit.op_class_0::No_OpClass        21806      0.03%      0.03% # Class of committed instruction
system.switch_cpus_10.commit.op_class_0::IntAlu     48797041     74.61%     74.64% # Class of committed instruction
system.switch_cpus_10.commit.op_class_0::IntMult       579311      0.89%     75.53% # Class of committed instruction
system.switch_cpus_10.commit.op_class_0::IntDiv           28      0.00%     75.53% # Class of committed instruction
system.switch_cpus_10.commit.op_class_0::FloatAdd        10182      0.02%     75.54% # Class of committed instruction
system.switch_cpus_10.commit.op_class_0::FloatCmp            0      0.00%     75.54% # Class of committed instruction
system.switch_cpus_10.commit.op_class_0::FloatCvt            0      0.00%     75.54% # Class of committed instruction
system.switch_cpus_10.commit.op_class_0::FloatMult            0      0.00%     75.54% # Class of committed instruction
system.switch_cpus_10.commit.op_class_0::FloatMultAcc            0      0.00%     75.54% # Class of committed instruction
system.switch_cpus_10.commit.op_class_0::FloatDiv            0      0.00%     75.54% # Class of committed instruction
system.switch_cpus_10.commit.op_class_0::FloatMisc            0      0.00%     75.54% # Class of committed instruction
system.switch_cpus_10.commit.op_class_0::FloatSqrt            0      0.00%     75.54% # Class of committed instruction
system.switch_cpus_10.commit.op_class_0::SimdAdd            0      0.00%     75.54% # Class of committed instruction
system.switch_cpus_10.commit.op_class_0::SimdAddAcc            0      0.00%     75.54% # Class of committed instruction
system.switch_cpus_10.commit.op_class_0::SimdAlu          538      0.00%     75.54% # Class of committed instruction
system.switch_cpus_10.commit.op_class_0::SimdCmp          170      0.00%     75.54% # Class of committed instruction
system.switch_cpus_10.commit.op_class_0::SimdCvt          696      0.00%     75.54% # Class of committed instruction
system.switch_cpus_10.commit.op_class_0::SimdMisc         5702      0.01%     75.55% # Class of committed instruction
system.switch_cpus_10.commit.op_class_0::SimdMult            0      0.00%     75.55% # Class of committed instruction
system.switch_cpus_10.commit.op_class_0::SimdMultAcc            0      0.00%     75.55% # Class of committed instruction
system.switch_cpus_10.commit.op_class_0::SimdShift            0      0.00%     75.55% # Class of committed instruction
system.switch_cpus_10.commit.op_class_0::SimdShiftAcc            0      0.00%     75.55% # Class of committed instruction
system.switch_cpus_10.commit.op_class_0::SimdDiv            0      0.00%     75.55% # Class of committed instruction
system.switch_cpus_10.commit.op_class_0::SimdSqrt            0      0.00%     75.55% # Class of committed instruction
system.switch_cpus_10.commit.op_class_0::SimdFloatAdd         7020      0.01%     75.56% # Class of committed instruction
system.switch_cpus_10.commit.op_class_0::SimdFloatAlu            0      0.00%     75.56% # Class of committed instruction
system.switch_cpus_10.commit.op_class_0::SimdFloatCmp            2      0.00%     75.56% # Class of committed instruction
system.switch_cpus_10.commit.op_class_0::SimdFloatCvt         4922      0.01%     75.57% # Class of committed instruction
system.switch_cpus_10.commit.op_class_0::SimdFloatDiv           12      0.00%     75.57% # Class of committed instruction
system.switch_cpus_10.commit.op_class_0::SimdFloatMisc            0      0.00%     75.57% # Class of committed instruction
system.switch_cpus_10.commit.op_class_0::SimdFloatMult         5676      0.01%     75.58% # Class of committed instruction
system.switch_cpus_10.commit.op_class_0::SimdFloatMultAcc            0      0.00%     75.58% # Class of committed instruction
system.switch_cpus_10.commit.op_class_0::SimdFloatSqrt            0      0.00%     75.58% # Class of committed instruction
system.switch_cpus_10.commit.op_class_0::SimdReduceAdd            0      0.00%     75.58% # Class of committed instruction
system.switch_cpus_10.commit.op_class_0::SimdReduceAlu            0      0.00%     75.58% # Class of committed instruction
system.switch_cpus_10.commit.op_class_0::SimdReduceCmp            0      0.00%     75.58% # Class of committed instruction
system.switch_cpus_10.commit.op_class_0::SimdFloatReduceAdd            0      0.00%     75.58% # Class of committed instruction
system.switch_cpus_10.commit.op_class_0::SimdFloatReduceCmp            0      0.00%     75.58% # Class of committed instruction
system.switch_cpus_10.commit.op_class_0::SimdAes            0      0.00%     75.58% # Class of committed instruction
system.switch_cpus_10.commit.op_class_0::SimdAesMix            0      0.00%     75.58% # Class of committed instruction
system.switch_cpus_10.commit.op_class_0::SimdSha1Hash            0      0.00%     75.58% # Class of committed instruction
system.switch_cpus_10.commit.op_class_0::SimdSha1Hash2            0      0.00%     75.58% # Class of committed instruction
system.switch_cpus_10.commit.op_class_0::SimdSha256Hash            0      0.00%     75.58% # Class of committed instruction
system.switch_cpus_10.commit.op_class_0::SimdSha256Hash2            0      0.00%     75.58% # Class of committed instruction
system.switch_cpus_10.commit.op_class_0::SimdShaSigma2            0      0.00%     75.58% # Class of committed instruction
system.switch_cpus_10.commit.op_class_0::SimdShaSigma3            0      0.00%     75.58% # Class of committed instruction
system.switch_cpus_10.commit.op_class_0::SimdPredAlu            0      0.00%     75.58% # Class of committed instruction
system.switch_cpus_10.commit.op_class_0::MemRead     10759241     16.45%     92.03% # Class of committed instruction
system.switch_cpus_10.commit.op_class_0::MemWrite      5181019      7.92%     99.95% # Class of committed instruction
system.switch_cpus_10.commit.op_class_0::FloatMemRead        20095      0.03%     99.98% # Class of committed instruction
system.switch_cpus_10.commit.op_class_0::FloatMemWrite        11774      0.02%    100.00% # Class of committed instruction
system.switch_cpus_10.commit.op_class_0::IprAccess            0      0.00%    100.00% # Class of committed instruction
system.switch_cpus_10.commit.op_class_0::InstPrefetch            0      0.00%    100.00% # Class of committed instruction
system.switch_cpus_10.commit.op_class_0::total     65405235                       # Class of committed instruction
system.switch_cpus_10.commit.refs            15972129                       # Number of memory references committed
system.switch_cpus_10.commit.swp_count              0                       # Number of s/w prefetches committed
system.switch_cpus_10.commit.vec_insts              0                       # Number of committed Vector instructions.
system.switch_cpus_10.committedInsts         50000001                       # Number of Instructions Simulated
system.switch_cpus_10.committedOps           65405235                       # Number of Ops (including micro ops) Simulated
system.switch_cpus_10.cpi                    0.882892                       # CPI: Cycles Per Instruction
system.switch_cpus_10.cpi_total              0.882892                       # CPI: Total CPI of All Threads
system.switch_cpus_10.decode.BlockedCycles     30419427                       # Number of cycles decode is blocked
system.switch_cpus_10.decode.DecodedInsts     70595993                       # Number of instructions handled by decode
system.switch_cpus_10.decode.IdleCycles       4058991                       # Number of cycles decode is idle
system.switch_cpus_10.decode.RunCycles        3841119                       # Number of cycles decode is running
system.switch_cpus_10.decode.SquashCycles       120451                       # Number of cycles decode is squashing
system.switch_cpus_10.decode.UnblockCycles      5441723                       # Number of cycles decode is unblocking
system.switch_cpus_10.dtb.rdAccesses         11189888                       # TLB accesses on read requests
system.switch_cpus_10.dtb.rdMisses               3933                       # TLB misses on read requests
system.switch_cpus_10.dtb.wrAccesses          5489122                       # TLB accesses on write requests
system.switch_cpus_10.dtb.wrMisses               1407                       # TLB misses on write requests
system.switch_cpus_10.fetch.Branches          1417632                       # Number of branches that fetch encountered
system.switch_cpus_10.fetch.CacheLines        3831687                       # Number of cache lines fetched
system.switch_cpus_10.fetch.Cycles           35672493                       # Number of cycles fetch has run and was not squashing or blocked
system.switch_cpus_10.fetch.IcacheSquashes        50511                       # Number of outstanding Icache misses that were squashed
system.switch_cpus_10.fetch.IcacheWaitRetryStallCycles          311                       # Number of stall cycles due to full MSHR
system.switch_cpus_10.fetch.Insts            54235366                       # Number of instructions fetch has processed
system.switch_cpus_10.fetch.MiscStallCycles          193                       # Number of cycles fetch has spent waiting on interrupts, or bad addresses, or out of MSHRs
system.switch_cpus_10.fetch.PendingTrapStallCycles            2                       # Number of stall cycles due to pending traps
system.switch_cpus_10.fetch.SquashCycles       240902                       # Number of cycles fetch has spent squashing
system.switch_cpus_10.fetch.branchRate       0.032113                       # Number of branch fetches per cycle
system.switch_cpus_10.fetch.icacheStallCycles      8088275                       # Number of cycles fetch is stalled on an Icache miss
system.switch_cpus_10.fetch.predictedBranches       905782                       # Number of branches that fetch has predicted taken
system.switch_cpus_10.fetch.rate             1.228584                       # Number of inst fetches per cycle
system.switch_cpus_10.fetch.rateDist::samples     43881725                       # Number of instructions fetched each cycle (Total)
system.switch_cpus_10.fetch.rateDist::mean     1.646552                       # Number of instructions fetched each cycle (Total)
system.switch_cpus_10.fetch.rateDist::stdev     3.010400                       # Number of instructions fetched each cycle (Total)
system.switch_cpus_10.fetch.rateDist::underflows            0      0.00%      0.00% # Number of instructions fetched each cycle (Total)
system.switch_cpus_10.fetch.rateDist::0      32399878     73.83%     73.83% # Number of instructions fetched each cycle (Total)
system.switch_cpus_10.fetch.rateDist::1        642455      1.46%     75.30% # Number of instructions fetched each cycle (Total)
system.switch_cpus_10.fetch.rateDist::2        675042      1.54%     76.84% # Number of instructions fetched each cycle (Total)
system.switch_cpus_10.fetch.rateDist::3        635178      1.45%     78.28% # Number of instructions fetched each cycle (Total)
system.switch_cpus_10.fetch.rateDist::4        796736      1.82%     80.10% # Number of instructions fetched each cycle (Total)
system.switch_cpus_10.fetch.rateDist::5        765442      1.74%     81.84% # Number of instructions fetched each cycle (Total)
system.switch_cpus_10.fetch.rateDist::6        868202      1.98%     83.82% # Number of instructions fetched each cycle (Total)
system.switch_cpus_10.fetch.rateDist::7        658227      1.50%     85.32% # Number of instructions fetched each cycle (Total)
system.switch_cpus_10.fetch.rateDist::8       6440565     14.68%    100.00% # Number of instructions fetched each cycle (Total)
system.switch_cpus_10.fetch.rateDist::overflows            0      0.00%    100.00% # Number of instructions fetched each cycle (Total)
system.switch_cpus_10.fetch.rateDist::min_value            0                       # Number of instructions fetched each cycle (Total)
system.switch_cpus_10.fetch.rateDist::max_value            8                       # Number of instructions fetched each cycle (Total)
system.switch_cpus_10.fetch.rateDist::total     43881725                       # Number of instructions fetched each cycle (Total)
system.switch_cpus_10.fp_regfile_reads         155100                       # number of floating regfile reads
system.switch_cpus_10.fp_regfile_writes        133933                       # number of floating regfile writes
system.switch_cpus_10.idleCycles               262876                       # Total number of cycles that the CPU has spent unscheduled due to idling
system.switch_cpus_10.iew.branchMispredicts       137346                       # Number of branch mispredicts detected at execute
system.switch_cpus_10.iew.exec_branches       1160100                       # Number of branches executed
system.switch_cpus_10.iew.exec_nop                  0                       # number of nop insts executed
system.switch_cpus_10.iew.exec_rate          1.524608                       # Inst execution rate
system.switch_cpus_10.iew.exec_refs          16681521                       # number of memory reference insts executed
system.switch_cpus_10.iew.exec_stores         5485436                       # Number of stores executed
system.switch_cpus_10.iew.exec_swp                  0                       # number of swp insts executed
system.switch_cpus_10.iew.iewBlockCycles      3958815                       # Number of cycles IEW is blocking
system.switch_cpus_10.iew.iewDispLoadInsts     11428271                       # Number of dispatched load instructions
system.switch_cpus_10.iew.iewDispNonSpecInsts           10                       # Number of dispatched non-speculative instructions
system.switch_cpus_10.iew.iewDispSquashedInsts        77149                       # Number of squashed instructions skipped by dispatch
system.switch_cpus_10.iew.iewDispStoreInsts      5725003                       # Number of dispatched store instructions
system.switch_cpus_10.iew.iewDispatchedInsts     69260743                       # Number of instructions dispatched to IQ
system.switch_cpus_10.iew.iewExecLoadInsts     11196085                       # Number of load instructions executed
system.switch_cpus_10.iew.iewExecSquashedInsts       108688                       # Number of squashed instructions skipped in execute
system.switch_cpus_10.iew.iewExecutedInsts     67303209                       # Number of executed instructions
system.switch_cpus_10.iew.iewIQFullEvents        98143                       # Number of times the IQ has become full, causing a stall
system.switch_cpus_10.iew.iewIdleCycles             0                       # Number of cycles IEW is idle
system.switch_cpus_10.iew.iewLSQFullEvents       236732                       # Number of times the LSQ has become full, causing a stall
system.switch_cpus_10.iew.iewSquashCycles       120451                       # Number of cycles IEW is squashing
system.switch_cpus_10.iew.iewUnblockCycles       340461                       # Number of cycles IEW is unblocking
system.switch_cpus_10.iew.lsq.thread0.blockedLoads            0                       # Number of blocked loads due to partial load-store forwarding
system.switch_cpus_10.iew.lsq.thread0.cacheBlocked          814                       # Number of times an access to memory failed due to the cache being blocked
system.switch_cpus_10.iew.lsq.thread0.forwLoads       582474                       # Number of loads that had data forwarded from stores
system.switch_cpus_10.iew.lsq.thread0.ignoredResponses          831                       # Number of memory responses ignored because the instruction is squashed
system.switch_cpus_10.iew.lsq.thread0.invAddrLoads            0                       # Number of loads ignored due to an invalid address
system.switch_cpus_10.iew.lsq.thread0.invAddrSwpfs            0                       # Number of software prefetches ignored due to an invalid address
system.switch_cpus_10.iew.lsq.thread0.memOrderViolation         1955                       # Number of memory ordering violations
system.switch_cpus_10.iew.lsq.thread0.rescheduledLoads          519                       # Number of loads that were rescheduled
system.switch_cpus_10.iew.lsq.thread0.squashedLoads       648922                       # Number of loads squashed
system.switch_cpus_10.iew.lsq.thread0.squashedStores       532208                       # Number of stores squashed
system.switch_cpus_10.iew.memOrderViolationEvents         1955                       # Number of memory order violations
system.switch_cpus_10.iew.predictedNotTakenIncorrect        94699                       # Number of branches that were predicted not taken incorrectly
system.switch_cpus_10.iew.predictedTakenIncorrect        42647                       # Number of branches that were predicted taken incorrectly
system.switch_cpus_10.iew.wb_consumers      107178551                       # num instructions consuming a value
system.switch_cpus_10.iew.wb_count           67097630                       # cumulative count of insts written-back
system.switch_cpus_10.iew.wb_fanout          0.514143                       # average fanout of values written-back
system.switch_cpus_10.iew.wb_producers       55105131                       # num instructions producing a value
system.switch_cpus_10.iew.wb_rate            1.519951                       # insts written-back per cycle
system.switch_cpus_10.iew.wb_sent            67170556                       # cumulative count of insts sent to commit
system.switch_cpus_10.int_regfile_reads     140340434                       # number of integer regfile reads
system.switch_cpus_10.int_regfile_writes     60883622                       # number of integer regfile writes
system.switch_cpus_10.ipc                    1.132641                       # IPC: Instructions Per Cycle
system.switch_cpus_10.ipc_total              1.132641                       # IPC: Total IPC of All Threads
system.switch_cpus_10.iq.FU_type_0::No_OpClass       101399      0.15%      0.15% # Type of FU issued
system.switch_cpus_10.iq.FU_type_0::IntAlu     49957292     74.11%     74.26% # Type of FU issued
system.switch_cpus_10.iq.FU_type_0::IntMult       593377      0.88%     75.14% # Type of FU issued
system.switch_cpus_10.iq.FU_type_0::IntDiv           52      0.00%     75.14% # Type of FU issued
system.switch_cpus_10.iq.FU_type_0::FloatAdd        10798      0.02%     75.15% # Type of FU issued
system.switch_cpus_10.iq.FU_type_0::FloatCmp            0      0.00%     75.15% # Type of FU issued
system.switch_cpus_10.iq.FU_type_0::FloatCvt            0      0.00%     75.15% # Type of FU issued
system.switch_cpus_10.iq.FU_type_0::FloatMult            0      0.00%     75.15% # Type of FU issued
system.switch_cpus_10.iq.FU_type_0::FloatMultAcc            0      0.00%     75.15% # Type of FU issued
system.switch_cpus_10.iq.FU_type_0::FloatDiv            0      0.00%     75.15% # Type of FU issued
system.switch_cpus_10.iq.FU_type_0::FloatMisc            0      0.00%     75.15% # Type of FU issued
system.switch_cpus_10.iq.FU_type_0::FloatSqrt            0      0.00%     75.15% # Type of FU issued
system.switch_cpus_10.iq.FU_type_0::SimdAdd            0      0.00%     75.15% # Type of FU issued
system.switch_cpus_10.iq.FU_type_0::SimdAddAcc            0      0.00%     75.15% # Type of FU issued
system.switch_cpus_10.iq.FU_type_0::SimdAlu          618      0.00%     75.16% # Type of FU issued
system.switch_cpus_10.iq.FU_type_0::SimdCmp          182      0.00%     75.16% # Type of FU issued
system.switch_cpus_10.iq.FU_type_0::SimdCvt          874      0.00%     75.16% # Type of FU issued
system.switch_cpus_10.iq.FU_type_0::SimdMisc         5769      0.01%     75.17% # Type of FU issued
system.switch_cpus_10.iq.FU_type_0::SimdMult            0      0.00%     75.17% # Type of FU issued
system.switch_cpus_10.iq.FU_type_0::SimdMultAcc            0      0.00%     75.17% # Type of FU issued
system.switch_cpus_10.iq.FU_type_0::SimdShift            0      0.00%     75.17% # Type of FU issued
system.switch_cpus_10.iq.FU_type_0::SimdShiftAcc            0      0.00%     75.17% # Type of FU issued
system.switch_cpus_10.iq.FU_type_0::SimdDiv            0      0.00%     75.17% # Type of FU issued
system.switch_cpus_10.iq.FU_type_0::SimdSqrt            0      0.00%     75.17% # Type of FU issued
system.switch_cpus_10.iq.FU_type_0::SimdFloatAdd         7075      0.01%     75.18% # Type of FU issued
system.switch_cpus_10.iq.FU_type_0::SimdFloatAlu            0      0.00%     75.18% # Type of FU issued
system.switch_cpus_10.iq.FU_type_0::SimdFloatCmp            2      0.00%     75.18% # Type of FU issued
system.switch_cpus_10.iq.FU_type_0::SimdFloatCvt         4962      0.01%     75.18% # Type of FU issued
system.switch_cpus_10.iq.FU_type_0::SimdFloatDiv           15      0.00%     75.18% # Type of FU issued
system.switch_cpus_10.iq.FU_type_0::SimdFloatMisc            0      0.00%     75.18% # Type of FU issued
system.switch_cpus_10.iq.FU_type_0::SimdFloatMult         5691      0.01%     75.19% # Type of FU issued
system.switch_cpus_10.iq.FU_type_0::SimdFloatMultAcc            0      0.00%     75.19% # Type of FU issued
system.switch_cpus_10.iq.FU_type_0::SimdFloatSqrt            0      0.00%     75.19% # Type of FU issued
system.switch_cpus_10.iq.FU_type_0::SimdReduceAdd            0      0.00%     75.19% # Type of FU issued
system.switch_cpus_10.iq.FU_type_0::SimdReduceAlu            0      0.00%     75.19% # Type of FU issued
system.switch_cpus_10.iq.FU_type_0::SimdReduceCmp            0      0.00%     75.19% # Type of FU issued
system.switch_cpus_10.iq.FU_type_0::SimdFloatReduceAdd            0      0.00%     75.19% # Type of FU issued
system.switch_cpus_10.iq.FU_type_0::SimdFloatReduceCmp            0      0.00%     75.19% # Type of FU issued
system.switch_cpus_10.iq.FU_type_0::SimdAes            0      0.00%     75.19% # Type of FU issued
system.switch_cpus_10.iq.FU_type_0::SimdAesMix            0      0.00%     75.19% # Type of FU issued
system.switch_cpus_10.iq.FU_type_0::SimdSha1Hash            0      0.00%     75.19% # Type of FU issued
system.switch_cpus_10.iq.FU_type_0::SimdSha1Hash2            0      0.00%     75.19% # Type of FU issued
system.switch_cpus_10.iq.FU_type_0::SimdSha256Hash            0      0.00%     75.19% # Type of FU issued
system.switch_cpus_10.iq.FU_type_0::SimdSha256Hash2            0      0.00%     75.19% # Type of FU issued
system.switch_cpus_10.iq.FU_type_0::SimdShaSigma2            0      0.00%     75.19% # Type of FU issued
system.switch_cpus_10.iq.FU_type_0::SimdShaSigma3            0      0.00%     75.19% # Type of FU issued
system.switch_cpus_10.iq.FU_type_0::SimdPredAlu            0      0.00%     75.19% # Type of FU issued
system.switch_cpus_10.iq.FU_type_0::MemRead     11122073     16.50%     91.69% # Type of FU issued
system.switch_cpus_10.iq.FU_type_0::MemWrite      5400218      8.01%     99.70% # Type of FU issued
system.switch_cpus_10.iq.FU_type_0::FloatMemRead       106130      0.16%     99.86% # Type of FU issued
system.switch_cpus_10.iq.FU_type_0::FloatMemWrite        95371      0.14%    100.00% # Type of FU issued
system.switch_cpus_10.iq.FU_type_0::IprAccess            0      0.00%    100.00% # Type of FU issued
system.switch_cpus_10.iq.FU_type_0::InstPrefetch            0      0.00%    100.00% # Type of FU issued
system.switch_cpus_10.iq.FU_type_0::total     67411898                       # Type of FU issued
system.switch_cpus_10.iq.fp_alu_accesses       271026                       # Number of floating point alu accesses
system.switch_cpus_10.iq.fp_inst_queue_reads       509817                       # Number of floating instruction queue reads
system.switch_cpus_10.iq.fp_inst_queue_wakeup_accesses       234026                       # Number of floating instruction queue wakeup accesses
system.switch_cpus_10.iq.fp_inst_queue_writes       429918                       # Number of floating instruction queue writes
system.switch_cpus_10.iq.fu_busy_cnt           397008                       # FU busy when requested
system.switch_cpus_10.iq.fu_busy_rate        0.005889                       # FU busy rate (busy events/executed inst)
system.switch_cpus_10.iq.fu_full::No_OpClass            0      0.00%      0.00% # attempts to use FU when none available
system.switch_cpus_10.iq.fu_full::IntAlu       231106     58.21%     58.21% # attempts to use FU when none available
system.switch_cpus_10.iq.fu_full::IntMult            0      0.00%     58.21% # attempts to use FU when none available
system.switch_cpus_10.iq.fu_full::IntDiv            0      0.00%     58.21% # attempts to use FU when none available
system.switch_cpus_10.iq.fu_full::FloatAdd            0      0.00%     58.21% # attempts to use FU when none available
system.switch_cpus_10.iq.fu_full::FloatCmp            0      0.00%     58.21% # attempts to use FU when none available
system.switch_cpus_10.iq.fu_full::FloatCvt            0      0.00%     58.21% # attempts to use FU when none available
system.switch_cpus_10.iq.fu_full::FloatMult            0      0.00%     58.21% # attempts to use FU when none available
system.switch_cpus_10.iq.fu_full::FloatMultAcc            0      0.00%     58.21% # attempts to use FU when none available
system.switch_cpus_10.iq.fu_full::FloatDiv            0      0.00%     58.21% # attempts to use FU when none available
system.switch_cpus_10.iq.fu_full::FloatMisc            0      0.00%     58.21% # attempts to use FU when none available
system.switch_cpus_10.iq.fu_full::FloatSqrt            0      0.00%     58.21% # attempts to use FU when none available
system.switch_cpus_10.iq.fu_full::SimdAdd            0      0.00%     58.21% # attempts to use FU when none available
system.switch_cpus_10.iq.fu_full::SimdAddAcc            0      0.00%     58.21% # attempts to use FU when none available
system.switch_cpus_10.iq.fu_full::SimdAlu           25      0.01%     58.22% # attempts to use FU when none available
system.switch_cpus_10.iq.fu_full::SimdCmp            1      0.00%     58.22% # attempts to use FU when none available
system.switch_cpus_10.iq.fu_full::SimdCvt           22      0.01%     58.22% # attempts to use FU when none available
system.switch_cpus_10.iq.fu_full::SimdMisc           14      0.00%     58.23% # attempts to use FU when none available
system.switch_cpus_10.iq.fu_full::SimdMult            0      0.00%     58.23% # attempts to use FU when none available
system.switch_cpus_10.iq.fu_full::SimdMultAcc            0      0.00%     58.23% # attempts to use FU when none available
system.switch_cpus_10.iq.fu_full::SimdShift            0      0.00%     58.23% # attempts to use FU when none available
system.switch_cpus_10.iq.fu_full::SimdShiftAcc            0      0.00%     58.23% # attempts to use FU when none available
system.switch_cpus_10.iq.fu_full::SimdDiv            0      0.00%     58.23% # attempts to use FU when none available
system.switch_cpus_10.iq.fu_full::SimdSqrt            0      0.00%     58.23% # attempts to use FU when none available
system.switch_cpus_10.iq.fu_full::SimdFloatAdd            0      0.00%     58.23% # attempts to use FU when none available
system.switch_cpus_10.iq.fu_full::SimdFloatAlu            0      0.00%     58.23% # attempts to use FU when none available
system.switch_cpus_10.iq.fu_full::SimdFloatCmp            0      0.00%     58.23% # attempts to use FU when none available
system.switch_cpus_10.iq.fu_full::SimdFloatCvt            0      0.00%     58.23% # attempts to use FU when none available
system.switch_cpus_10.iq.fu_full::SimdFloatDiv            0      0.00%     58.23% # attempts to use FU when none available
system.switch_cpus_10.iq.fu_full::SimdFloatMisc            0      0.00%     58.23% # attempts to use FU when none available
system.switch_cpus_10.iq.fu_full::SimdFloatMult            0      0.00%     58.23% # attempts to use FU when none available
[...]
system.cpu1.l2cache.ReadSharedReq_avg_miss_latency::total 156188.567926                       # average ReadSharedReq miss latency
system.cpu1.l2cache.ReadSharedReq_mshr_misses::.switch_cpus1.data         1210                       # number of ReadSharedReq MSHR misses
system.cpu1.l2cache.ReadSharedReq_mshr_misses::.switch_cpus_11.data        21182                       # number of ReadSharedReq MSHR misses
system.cpu1.l2cache.ReadSharedReq_mshr_misses::total        22392                       # number of ReadSharedReq MSHR misses
system.cpu1.l2cache.ReadSharedReq_mshr_miss_latency::.switch_cpus1.data    189521913                       # number of ReadSharedReq MSHR miss cycles
system.cpu1.l2cache.ReadSharedReq_mshr_miss_latency::.switch_cpus_11.data   3298515036                       # number of ReadSharedReq MSHR miss cycles
system.cpu1.l2cache.ReadSharedReq_mshr_miss_latency::total   3488036949                       # number of ReadSharedReq MSHR miss cycles
system.cpu1.l2cache.ReadSharedReq_mshr_miss_rate::.switch_cpus1.data     0.932922                       # mshr miss rate for ReadSharedReq accesses
system.cpu1.l2cache.ReadSharedReq_mshr_miss_rate::.switch_cpus_11.data     0.529127                       # mshr miss rate for ReadSharedReq accesses
system.cpu1.l2cache.ReadSharedReq_mshr_miss_rate::total     0.541799                       # mshr miss rate for ReadSharedReq accesses
system.cpu1.l2cache.ReadSharedReq_avg_mshr_miss_latency::.switch_cpus1.data 156629.680165                       # average ReadSharedReq mshr miss latency
system.cpu1.l2cache.ReadSharedReq_avg_mshr_miss_latency::.switch_cpus_11.data 155722.549146                       # average ReadSharedReq mshr miss latency
system.cpu1.l2cache.ReadSharedReq_avg_mshr_miss_latency::total 155771.567926                       # average ReadSharedReq mshr miss latency
system.cpu1.l2cache.tags.pwrStateResidencyTicks::UNDEFINED 1314197197761                       # Cumulative time (in ticks) in various power states
system.cpu1.l2cache.tags.tagsinuse          56.794339                       # Cycle average of tags in use
system.cpu1.l2cache.tags.total_refs             82618                       # Total number of references to valid blocks.
system.cpu1.l2cache.tags.sampled_refs           22702                       # Sample count of references to valid blocks.
system.cpu1.l2cache.tags.avg_refs            3.639239                       # Average number of references to valid blocks.
system.cpu1.l2cache.tags.warmup_cycle    1293351708033                       # Cycle when the warmup percentage was hit.
system.cpu1.l2cache.tags.occ_blocks::.cpu1.inst     0.003883                       # Average occupied blocks per requestor
system.cpu1.l2cache.tags.occ_blocks::.cpu1.data     0.015862                       # Average occupied blocks per requestor
system.cpu1.l2cache.tags.occ_blocks::.switch_cpus1.inst     0.727911                       # Average occupied blocks per requestor
system.cpu1.l2cache.tags.occ_blocks::.switch_cpus1.data     9.287924                       # Average occupied blocks per requestor
system.cpu1.l2cache.tags.occ_blocks::.switch_cpus_11.inst     0.194588                       # Average occupied blocks per requestor
system.cpu1.l2cache.tags.occ_blocks::.switch_cpus_11.data    46.564171                       # Average occupied blocks per requestor
system.cpu1.l2cache.tags.occ_percent::.cpu1.inst     0.000001                       # Average percentage of cache occupancy
system.cpu1.l2cache.tags.occ_percent::.cpu1.data     0.000004                       # Average percentage of cache occupancy
system.cpu1.l2cache.tags.occ_percent::.switch_cpus1.inst     0.000178                       # Average percentage of cache occupancy
system.cpu1.l2cache.tags.occ_percent::.switch_cpus1.data     0.002268                       # Average percentage of cache occupancy
system.cpu1.l2cache.tags.occ_percent::.switch_cpus_11.inst     0.000048                       # Average percentage of cache occupancy
system.cpu1.l2cache.tags.occ_percent::.switch_cpus_11.data     0.011368                       # Average percentage of cache occupancy
system.cpu1.l2cache.tags.occ_percent::total     0.013866                       # Average percentage of cache occupancy
system.cpu1.l2cache.tags.occ_task_id_blocks::1024         4096                       # Occupied blocks per task id
system.cpu1.l2cache.tags.age_task_id_blocks_1024::0           18                       # Occupied blocks per task id
system.cpu1.l2cache.tags.age_task_id_blocks_1024::1           89                       # Occupied blocks per task id
system.cpu1.l2cache.tags.age_task_id_blocks_1024::2         1170                       # Occupied blocks per task id
system.cpu1.l2cache.tags.age_task_id_blocks_1024::3         2310                       # Occupied blocks per task id
system.cpu1.l2cache.tags.age_task_id_blocks_1024::4          509                       # Occupied blocks per task id
system.cpu1.l2cache.tags.occ_task_id_percent::1024            1                       # Percentage of cache occupancy per task id
system.cpu1.l2cache.tags.tag_accesses         1344686                       # Number of tag accesses
system.cpu1.l2cache.tags.data_accesses        1344686                       # Number of data accesses
system.cpu1.toL2Bus.pwrStateResidencyTicks::UNDEFINED 1314197197761                       # Cumulative time (in ticks) in various power states
system.cpu1.toL2Bus.trans_dist::ReadResp        41615                       # Transaction distribution
system.cpu1.toL2Bus.trans_dist::WritebackDirty          135                       # Transaction distribution
system.cpu1.toL2Bus.trans_dist::CleanEvict        59400                       # Transaction distribution
system.cpu1.toL2Bus.trans_dist::ReadExReq          112                       # Transaction distribution
system.cpu1.toL2Bus.trans_dist::ReadExResp          112                       # Transaction distribution
system.cpu1.toL2Bus.trans_dist::ReadCleanReq          286                       # Transaction distribution
system.cpu1.toL2Bus.trans_dist::ReadSharedReq        41329                       # Transaction distribution
system.cpu1.toL2Bus.pkt_count_system.cpu1.icache.mem_side::system.cpu1.l2cache.cpu_side          572                       # Packet count per connected master and slave (bytes)
system.cpu1.toL2Bus.pkt_count_system.cpu1.dcache.mem_side::system.cpu1.l2cache.cpu_side       123811                       # Packet count per connected master and slave (bytes)
system.cpu1.toL2Bus.pkt_count::total           124383                       # Packet count per connected master and slave (bytes)
system.cpu1.toL2Bus.pkt_size_system.cpu1.icache.mem_side::system.cpu1.l2cache.cpu_side        18304                       # Cumulative packet size per connected master and slave (bytes)
system.cpu1.toL2Bus.pkt_size_system.cpu1.dcache.mem_side::system.cpu1.l2cache.cpu_side      2660416                       # Cumulative packet size per connected master and slave (bytes)
system.cpu1.toL2Bus.pkt_size::total           2678720                       # Cumulative packet size per connected master and slave (bytes)
system.cpu1.toL2Bus.snoops                      18606                       # Total snoops (count)
system.cpu1.toL2Bus.snoopTraffic                  448                       # Total snoop traffic (bytes)
system.cpu1.toL2Bus.snoop_fanout::samples        60333                       # Request fanout histogram
system.cpu1.toL2Bus.snoop_fanout::mean       0.006033                       # Request fanout histogram
system.cpu1.toL2Bus.snoop_fanout::stdev      0.077440                       # Request fanout histogram
system.cpu1.toL2Bus.snoop_fanout::underflows            0      0.00%      0.00% # Request fanout histogram
system.cpu1.toL2Bus.snoop_fanout::0             59969     99.40%     99.40% # Request fanout histogram
system.cpu1.toL2Bus.snoop_fanout::1               364      0.60%    100.00% # Request fanout histogram
system.cpu1.toL2Bus.snoop_fanout::2                 0      0.00%    100.00% # Request fanout histogram
system.cpu1.toL2Bus.snoop_fanout::3                 0      0.00%    100.00% # Request fanout histogram
system.cpu1.toL2Bus.snoop_fanout::4                 0      0.00%    100.00% # Request fanout histogram
system.cpu1.toL2Bus.snoop_fanout::overflows            0      0.00%    100.00% # Request fanout histogram
system.cpu1.toL2Bus.snoop_fanout::min_value            0                       # Request fanout histogram
system.cpu1.toL2Bus.snoop_fanout::max_value            1                       # Request fanout histogram
system.cpu1.toL2Bus.snoop_fanout::total         60333                       # Request fanout histogram
system.cpu1.toL2Bus.reqLayer0.occupancy      34573470                       # Layer occupancy (ticks)
system.cpu1.toL2Bus.reqLayer0.utilization          0.2                       # Layer utilization (%)
system.cpu1.toL2Bus.respLayer1.occupancy     51841440                       # Layer occupancy (ticks)
system.cpu1.toL2Bus.respLayer1.utilization          0.2                       # Layer utilization (%)
system.cpu1.toL2Bus.respLayer0.occupancy       356535                       # Layer occupancy (ticks)
system.cpu1.toL2Bus.respLayer0.utilization          0.0                       # Layer utilization (%)
system.switch_cpus_10.pwrStateResidencyTicks::OFF  20845490145                       # Cumulative time (in ticks) in various power states
system.switch_cpus_10.dtb.walker.pwrStateResidencyTicks::UNDEFINED 1314197197761                       # Cumulative time (in ticks) in various power states
system.switch_cpus_10.itb.walker.pwrStateResidencyTicks::UNDEFINED 1314197197761                       # Cumulative time (in ticks) in various power states
system.switch_cpus_11.pwrStateResidencyTicks::OFF  20845490145                       # Cumulative time (in ticks) in various power states
system.switch_cpus_11.dtb.walker.pwrStateResidencyTicks::UNDEFINED 1314197197761                       # Cumulative time (in ticks) in various power states
system.switch_cpus_11.itb.walker.pwrStateResidencyTicks::UNDEFINED 1314197197761                       # Cumulative time (in ticks) in various power states
system.cpu_voltage_domain.voltage                   1                       # Voltage in Volts
system.switch_cpus1.numPwrStateTransitions            1                       # Number of power state transitions
system.switch_cpus1.pwrStateResidencyTicks::UNDEFINED 1293351707616                       # Cumulative time (in ticks) in various power states
system.switch_cpus1.pwrStateResidencyTicks::OFF  20845490145                       # Cumulative time (in ticks) in various power states
system.switch_cpus1.dtb.walker.pwrStateResidencyTicks::UNDEFINED 1314197197761                       # Cumulative time (in ticks) in various power states
system.switch_cpus1.itb.walker.pwrStateResidencyTicks::UNDEFINED 1314197197761                       # Cumulative time (in ticks) in various power states
system.mem_ctrls.pwrStateResidencyTicks::UNDEFINED 1314197197761                       # Cumulative time (in ticks) in various power states
system.mem_ctrls.bytes_read::.cpu0.inst           128                       # Number of bytes read from this memory
system.mem_ctrls.bytes_read::.cpu0.data            64                       # Number of bytes read from this memory
system.mem_ctrls.bytes_read::.cpu1.inst            64                       # Number of bytes read from this memory
system.mem_ctrls.bytes_read::.cpu1.data            64                       # Number of bytes read from this memory
system.mem_ctrls.bytes_read::.switch_cpus0.inst         2496                       # Number of bytes read from this memory
system.mem_ctrls.bytes_read::.switch_cpus0.data       188800                       # Number of bytes read from this memory
system.mem_ctrls.bytes_read::.switch_cpus1.inst        12672                       # Number of bytes read from this memory
system.mem_ctrls.bytes_read::.switch_cpus1.data        78784                       # Number of bytes read from this memory
system.mem_ctrls.bytes_read::.switch_cpus_10.inst       134528                       # Number of bytes read from this memory
system.mem_ctrls.bytes_read::.switch_cpus_10.data       943680                       # Number of bytes read from this memory
system.mem_ctrls.bytes_read::.switch_cpus_11.inst         5568                       # Number of bytes read from this memory
system.mem_ctrls.bytes_read::.switch_cpus_11.data      1354752                       # Number of bytes read from this memory
system.mem_ctrls.bytes_read::total            2721600                       # Number of bytes read from this memory
system.mem_ctrls.bytes_inst_read::.cpu0.inst          128                       # Number of instructions bytes read from this memory
system.mem_ctrls.bytes_inst_read::.cpu1.inst           64                       # Number of instructions bytes read from this memory
system.mem_ctrls.bytes_inst_read::.switch_cpus0.inst         2496                       # Number of instructions bytes read from this memory
system.mem_ctrls.bytes_inst_read::.switch_cpus1.inst        12672                       # Number of instructions bytes read from this memory
system.mem_ctrls.bytes_inst_read::.switch_cpus_10.inst       134528                       # Number of instructions bytes read from this memory
system.mem_ctrls.bytes_inst_read::.switch_cpus_11.inst         5568                       # Number of instructions bytes read from this memory
system.mem_ctrls.bytes_inst_read::total        155456                       # Number of instructions bytes read from this memory
system.mem_ctrls.num_reads::.cpu0.inst              2                       # Number of read requests responded to by this memory
system.mem_ctrls.num_reads::.cpu0.data              1                       # Number of read requests responded to by this memory
system.mem_ctrls.num_reads::.cpu1.inst              1                       # Number of read requests responded to by this memory
system.mem_ctrls.num_reads::.cpu1.data              1                       # Number of read requests responded to by this memory
system.mem_ctrls.num_reads::.switch_cpus0.inst           39                       # Number of read requests responded to by this memory
system.mem_ctrls.num_reads::.switch_cpus0.data         2950                       # Number of read requests responded to by this memory
system.mem_ctrls.num_reads::.switch_cpus1.inst          198                       # Number of read requests responded to by this memory
system.mem_ctrls.num_reads::.switch_cpus1.data         1231                       # Number of read requests responded to by this memory
system.mem_ctrls.num_reads::.switch_cpus_10.inst         2102                       # Number of read requests responded to by this memory
system.mem_ctrls.num_reads::.switch_cpus_10.data        14745                       # Number of read requests responded to by this memory
system.mem_ctrls.num_reads::.switch_cpus_11.inst           87                       # Number of read requests responded to by this memory
system.mem_ctrls.num_reads::.switch_cpus_11.data        21168                       # Number of read requests responded to by this memory
system.mem_ctrls.num_reads::total               42525                       # Number of read requests responded to by this memory
system.mem_ctrls.bw_read::.cpu0.inst             6140                       # Total read bandwidth from this memory (bytes/s)
system.mem_ctrls.bw_read::.cpu0.data             3070                       # Total read bandwidth from this memory (bytes/s)
system.mem_ctrls.bw_read::.cpu1.inst             3070                       # Total read bandwidth from this memory (bytes/s)
system.mem_ctrls.bw_read::.cpu1.data             3070                       # Total read bandwidth from this memory (bytes/s)
system.mem_ctrls.bw_read::.switch_cpus0.inst       119738                       # Total read bandwidth from this memory (bytes/s)
system.mem_ctrls.bw_read::.switch_cpus0.data      9057115                       # Total read bandwidth from this memory (bytes/s)
system.mem_ctrls.bw_read::.switch_cpus1.inst       607901                       # Total read bandwidth from this memory (bytes/s)
system.mem_ctrls.bw_read::.switch_cpus1.data      3779427                       # Total read bandwidth from this memory (bytes/s)
system.mem_ctrls.bw_read::.switch_cpus_10.inst      6453578                       # Total read bandwidth from this memory (bytes/s)
system.mem_ctrls.bw_read::.switch_cpus_10.data     45270224                       # Total read bandwidth from this memory (bytes/s)
system.mem_ctrls.bw_read::.switch_cpus_11.inst       267108                       # Total read bandwidth from this memory (bytes/s)
system.mem_ctrls.bw_read::.switch_cpus_11.data     64990172                       # Total read bandwidth from this memory (bytes/s)
system.mem_ctrls.bw_read::total             130560614                       # Total read bandwidth from this memory (bytes/s)
system.mem_ctrls.bw_inst_read::.cpu0.inst         6140                       # Instruction read bandwidth from this memory (bytes/s)
system.mem_ctrls.bw_inst_read::.cpu1.inst         3070                       # Instruction read bandwidth from this memory (bytes/s)
system.mem_ctrls.bw_inst_read::.switch_cpus0.inst       119738                       # Instruction read bandwidth from this memory (bytes/s)
system.mem_ctrls.bw_inst_read::.switch_cpus1.inst       607901                       # Instruction read bandwidth from this memory (bytes/s)
system.mem_ctrls.bw_inst_read::.switch_cpus_10.inst      6453578                       # Instruction read bandwidth from this memory (bytes/s)
system.mem_ctrls.bw_inst_read::.switch_cpus_11.inst       267108                       # Instruction read bandwidth from this memory (bytes/s)
system.mem_ctrls.bw_inst_read::total          7457536                       # Instruction read bandwidth from this memory (bytes/s)
system.mem_ctrls.bw_total::.cpu0.inst            6140                       # Total bandwidth to/from this memory (bytes/s)
system.mem_ctrls.bw_total::.cpu0.data            3070                       # Total bandwidth to/from this memory (bytes/s)
system.mem_ctrls.bw_total::.cpu1.inst            3070                       # Total bandwidth to/from this memory (bytes/s)
system.mem_ctrls.bw_total::.cpu1.data            3070                       # Total bandwidth to/from this memory (bytes/s)
system.mem_ctrls.bw_total::.switch_cpus0.inst       119738                       # Total bandwidth to/from this memory (bytes/s)
system.mem_ctrls.bw_total::.switch_cpus0.data      9057115                       # Total bandwidth to/from this memory (bytes/s)
system.mem_ctrls.bw_total::.switch_cpus1.inst       607901                       # Total bandwidth to/from this memory (bytes/s)
system.mem_ctrls.bw_total::.switch_cpus1.data      3779427                       # Total bandwidth to/from this memory (bytes/s)
system.mem_ctrls.bw_total::.switch_cpus_10.inst      6453578                       # Total bandwidth to/from this memory (bytes/s)
system.mem_ctrls.bw_total::.switch_cpus_10.data     45270224                       # Total bandwidth to/from this memory (bytes/s)
system.mem_ctrls.bw_total::.switch_cpus_11.inst       267108                       # Total bandwidth to/from this memory (bytes/s)
system.mem_ctrls.bw_total::.switch_cpus_11.data     64990172                       # Total bandwidth to/from this memory (bytes/s)
system.mem_ctrls.bw_total::total            130560614                       # Total bandwidth to/from this memory (bytes/s)
system.cpu_clk_domain.clock                       417                       # Clock period in ticks

---------- End Simulation Statistics   ----------
