
---------- Begin Simulation Statistics ----------
final_tick                               1308689390871                       # Number of ticks from beginning of simulation (restored from checkpoints and never reset)
host_inst_rate                                 189841                       # Simulator instruction rate (inst/s)
host_mem_usage                                4419632                       # Number of bytes of host memory used
host_op_rate                                   326357                       # Simulator op (including micro ops) rate (op/s)
host_seconds                                   421.78                       # Real time elapsed on the host
host_tick_rate                               36364272                       # Simulator tick rate (ticks/s)
sim_freq                                 1000000000000                       # Frequency of simulated ticks
sim_insts                                    80070850                       # Number of instructions simulated
sim_ops                                     137650565                       # Number of ops (including micro ops) simulated
sim_seconds                                  0.015338                       # Number of seconds simulated
sim_ticks                                 15337683255                       # Number of ticks simulated
system.cpu0.committedInsts                          2                       # Number of instructions committed
system.cpu0.committedOps                            4                       # Number of ops (including micro ops) committed
system.cpu0.dtb.rdAccesses                          0                       # TLB accesses on read requests
system.cpu0.dtb.rdMisses                            0                       # TLB misses on read requests
system.cpu0.dtb.wrAccesses                          0                       # TLB accesses on write requests
system.cpu0.dtb.wrMisses                            0                       # TLB misses on write requests
system.cpu0.idle_fraction                           0                       # Percentage of idle cycles
system.cpu0.itb.rdAccesses                          0                       # TLB accesses on read requests
system.cpu0.itb.rdMisses                            0                       # TLB misses on read requests
system.cpu0.itb.wrAccesses                          3                       # TLB accesses on write requests
system.cpu0.itb.wrMisses                            0                       # TLB misses on write requests
system.cpu0.not_idle_fraction                       1                       # Percentage of non-idle cycles
system.cpu0.numCycles                               5                       # number of cpu cycles simulated
system.cpu0.numWorkItemsCompleted                   0                       # number of work items this cpu completed
system.cpu0.numWorkItemsStarted                     0                       # number of work items this cpu started
system.cpu0.num_busy_cycles                         5                       # Number of busy cycles
system.cpu0.num_cc_register_reads                   2                       # number of times the CC registers were read
system.cpu0.num_cc_register_writes                  4                       # number of times the CC registers were written
system.cpu0.num_conditional_control_insts            0                       # number of instructions that are conditional controls
system.cpu0.num_fp_alu_accesses                     0                       # Number of float alu accesses
system.cpu0.num_fp_insts                            0                       # number of float instructions
system.cpu0.num_fp_register_reads                   0                       # number of times the floating registers were read
system.cpu0.num_fp_register_writes                  0                       # number of times the floating registers were written
system.cpu0.num_func_calls                          0                       # number of times a function call or return occured
system.cpu0.num_idle_cycles                         0                       # Number of idle cycles
system.cpu0.num_int_alu_accesses                    4                       # Number of integer alu accesses
system.cpu0.num_int_insts                           4                       # number of integer instructions
system.cpu0.num_int_register_reads                  4                       # number of times the integer registers were read
system.cpu0.num_int_register_writes                 4                       # number of times the integer registers were written
system.cpu0.num_load_insts                          0                       # Number of load instructions
system.cpu0.num_mem_refs                            0                       # number of memory refs
system.cpu0.num_store_insts                         0                       # Number of store instructions
system.cpu0.num_vec_alu_accesses                    0                       # Number of vector alu accesses
system.cpu0.num_vec_insts                           0                       # number of vector instructions
system.cpu0.num_vec_register_reads                  0                       # number of times the vector registers were read
system.cpu0.num_vec_register_writes                 0                       # number of times the vector registers were written
system.cpu0.op_class::No_OpClass                    0      0.00%      0.00% # Class of executed instruction
system.cpu0.op_class::IntAlu                        4    100.00%    100.00% # Class of executed instruction
system.cpu0.op_class::IntMult                       0      0.00%    100.00% # Class of executed instruction
system.cpu0.op_class::IntDiv                        0      0.00%    100.00% # Class of executed instruction
system.cpu0.op_class::FloatAdd                      0      0.00%    100.00% # Class of executed instruction
system.cpu0.op_class::FloatCmp                      0      0.00%    100.00% # Class of executed instruction
system.cpu0.op_class::FloatCvt                      0      0.00%    100.00% # Class of executed instruction
system.cpu0.op_class::FloatMult                     0      0.00%    100.00% # Class of executed instruction
system.cpu0.op_class::FloatMultAcc                  0      0.00%    100.00% # Class of executed instruction
system.cpu0.op_class::FloatDiv                      0      0.00%    100.00% # Class of executed instruction
system.cpu0.op_class::FloatMisc                     0      0.00%    100.00% # Class of executed instruction
system.cpu0.op_class::FloatSqrt                     0      0.00%    100.00% # Class of executed instruction
system.cpu0.op_class::SimdAdd                       0      0.00%    100.00% # Class of executed instruction
system.cpu0.op_class::SimdAddAcc                    0      0.00%    100.00% # Class of executed instruction
system.cpu0.op_class::SimdAlu                       0      0.00%    100.00% # Class of executed instruction
system.cpu0.op_class::SimdCmp                       0      0.00%    100.00% # Class of executed instruction
system.cpu0.op_class::SimdCvt                       0      0.00%    100.00% # Class of executed instruction
system.cpu0.op_class::SimdMisc                      0      0.00%    100.00% # Class of executed instruction
system.cpu0.op_class::SimdMult                      0      0.00%    100.00% # Class of executed instruction
system.cpu0.op_class::SimdMultAcc                   0      0.00%    100.00% # Class of executed instruction
system.cpu0.op_class::SimdShift                     0      0.00%    100.00% # Class of executed instruction
system.cpu0.op_class::SimdShiftAcc                  0      0.00%    100.00% # Class of executed instruction
system.cpu0.op_class::SimdDiv                       0      0.00%    100.00% # Class of executed instruction
system.cpu0.op_class::SimdSqrt                      0      0.00%    100.00% # Class of executed instruction
system.cpu0.op_class::SimdFloatAdd                  0      0.00%    100.00% # Class of executed instruction
system.cpu0.op_class::SimdFloatAlu                  0      0.00%    100.00% # Class of executed instruction
system.cpu0.op_class::SimdFloatCmp                  0      0.00%    100.00% # Class of executed instruction
system.cpu0.op_class::SimdFloatCvt                  0      0.00%    100.00% # Class of executed instruction
system.cpu0.op_class::SimdFloatDiv                  0      0.00%    100.00% # Class of executed instruction
system.cpu0.op_class::SimdFloatMisc                 0      0.00%    100.00% # Class of executed instruction
system.cpu0.op_class::SimdFloatMult                 0      0.00%    100.00% # Class of executed instruction
system.cpu0.op_class::SimdFloatMultAcc              0      0.00%    100.00% # Class of executed instruction
system.cpu0.op_class::SimdFloatSqrt                 0      0.00%    100.00% # Class of executed instruction
system.cpu0.op_class::SimdReduceAdd                 0      0.00%    100.00% # Class of executed instruction
system.cpu0.op_class::SimdReduceAlu                 0      0.00%    100.00% # Class of executed instruction
system.cpu0.op_class::SimdReduceCmp                 0      0.00%    100.00% # Class of executed instruction
system.cpu0.op_class::SimdFloatReduceAdd            0      0.00%    100.00% # Class of executed instruction
system.cpu0.op_class::SimdFloatReduceCmp            0      0.00%    100.00% # Class of executed instruction
system.cpu0.op_class::SimdAes                       0      0.00%    100.00% # Class of executed instruction
system.cpu0.op_class::SimdAesMix                    0      0.00%    100.00% # Class of executed instruction
system.cpu0.op_class::SimdSha1Hash                  0      0.00%    100.00% # Class of executed instruction
system.cpu0.op_class::SimdSha1Hash2                 0      0.00%    100.00% # Class of executed instruction
system.cpu0.op_class::SimdSha256Hash                0      0.00%    100.00% # Class of executed instruction
system.cpu0.op_class::SimdSha256Hash2               0      0.00%    100.00% # Class of executed instruction
system.cpu0.op_class::SimdShaSigma2                 0      0.00%    100.00% # Class of executed instruction
system.cpu0.op_class::SimdShaSigma3                 0      0.00%    100.00% # Class of executed instruction
system.cpu0.op_class::SimdPredAlu                   0      0.00%    100.00% # Class of executed instruction
system.cpu0.op_class::MemRead                       0      0.00%    100.00% # Class of executed instruction
system.cpu0.op_class::MemWrite                      0      0.00%    100.00% # Class of executed instruction
system.cpu0.op_class::FloatMemRead                  0      0.00%    100.00% # Class of executed instruction
system.cpu0.op_class::FloatMemWrite                 0      0.00%    100.00% # Class of executed instruction
system.cpu0.op_class::IprAccess                     0      0.00%    100.00% # Class of executed instruction
system.cpu0.op_class::InstPrefetch                  0      0.00%    100.00% # Class of executed instruction
system.cpu0.op_class::total                         4                       # Class of executed instruction
system.cpu0.toL2Bus.snoop_filter.hit_multi_requests            0                       # Number of requests hitting in the snoop filter with multiple (>1) holders of the requested data.
system.cpu0.toL2Bus.snoop_filter.hit_multi_snoops            0                       # Number of snoops hitting in the snoop filter with multiple (>1) holders of the requested data.
system.cpu0.toL2Bus.snoop_filter.hit_single_requests         3204                       # Number of requests hitting in the snoop filter with a single holder of the requested data.
system.cpu0.toL2Bus.snoop_filter.hit_single_snoops            0                       # Number of snoops hitting in the snoop filter with a single holder of the requested data.
system.cpu0.toL2Bus.snoop_filter.tot_requests         6955                       # Total number of requests made to the snoop filter.
system.cpu0.toL2Bus.snoop_filter.tot_snoops            0                       # Total number of snoops made to the snoop filter.
system.cpu0.toL3Bus.snoop_filter.hit_multi_requests            0                       # Number of requests hitting in the snoop filter with multiple (>1) holders of the requested data.
system.cpu0.toL3Bus.snoop_filter.hit_multi_snoops            0                       # Number of snoops hitting in the snoop filter with multiple (>1) holders of the requested data.
system.cpu0.toL3Bus.snoop_filter.hit_single_requests            0                       # Number of requests hitting in the snoop filter with a single holder of the requested data.
system.cpu0.toL3Bus.snoop_filter.hit_single_snoops            0                       # Number of snoops hitting in the snoop filter with a single holder of the requested data.
system.cpu0.toL3Bus.snoop_filter.tot_requests         2504                       # Total number of requests made to the snoop filter.
system.cpu0.toL3Bus.snoop_filter.tot_snoops            0                       # Total number of snoops made to the snoop filter.
system.cpu0.workload.numSyscalls                    0                       # Number of system calls
system.cpu1.Branches                                1                       # Number of branches fetched
system.cpu1.committedInsts                          1                       # Number of instructions committed
system.cpu1.committedOps                            5                       # Number of ops (including micro ops) committed
system.cpu1.dtb.rdAccesses                          0                       # TLB accesses on read requests
system.cpu1.dtb.rdMisses                            0                       # TLB misses on read requests
system.cpu1.dtb.wrAccesses                          1                       # TLB accesses on write requests
system.cpu1.dtb.wrMisses                            0                       # TLB misses on write requests
system.cpu1.idle_fraction                           0                       # Percentage of idle cycles
system.cpu1.itb.rdAccesses                          0                       # TLB accesses on read requests
system.cpu1.itb.rdMisses                            0                       # TLB misses on read requests
system.cpu1.itb.wrAccesses                          2                       # TLB accesses on write requests
system.cpu1.itb.wrMisses                            0                       # TLB misses on write requests
system.cpu1.not_idle_fraction                       1                       # Percentage of non-idle cycles
system.cpu1.numCycles                               6                       # number of cpu cycles simulated
system.cpu1.numWorkItemsCompleted                   0                       # number of work items this cpu completed
system.cpu1.numWorkItemsStarted                     0                       # number of work items this cpu started
system.cpu1.num_busy_cycles                         6                       # Number of busy cycles
system.cpu1.num_conditional_control_insts            0                       # number of instructions that are conditional controls
system.cpu1.num_fp_alu_accesses                     0                       # Number of float alu accesses
system.cpu1.num_fp_insts                            0                       # number of float instructions
system.cpu1.num_fp_register_reads                   0                       # number of times the floating registers were read
system.cpu1.num_fp_register_writes                  0                       # number of times the floating registers were written
system.cpu1.num_func_calls                          1                       # number of times a function call or return occured
system.cpu1.num_idle_cycles                         0                       # Number of idle cycles
system.cpu1.num_int_alu_accesses                    5                       # Number of integer alu accesses
system.cpu1.num_int_insts                           5                       # number of integer instructions
system.cpu1.num_int_register_reads                  9                       # number of times the integer registers were read
system.cpu1.num_int_register_writes                 3                       # number of times the integer registers were written
system.cpu1.num_load_insts                          0                       # Number of load instructions
system.cpu1.num_mem_refs                            1                       # number of memory refs
system.cpu1.num_store_insts                         1                       # Number of store instructions
system.cpu1.num_vec_alu_accesses                    0                       # Number of vector alu accesses
system.cpu1.num_vec_insts                           0                       # number of vector instructions
system.cpu1.num_vec_register_reads                  0                       # number of times the vector registers were read
system.cpu1.num_vec_register_writes                 0                       # number of times the vector registers were written
system.cpu1.op_class::No_OpClass                    0      0.00%      0.00% # Class of executed instruction
system.cpu1.op_class::IntAlu                        4     80.00%     80.00% # Class of executed instruction
system.cpu1.op_class::IntMult                       0      0.00%     80.00% # Class of executed instruction
system.cpu1.op_class::IntDiv                        0      0.00%     80.00% # Class of executed instruction
system.cpu1.op_class::FloatAdd                      0      0.00%     80.00% # Class of executed instruction
system.cpu1.op_class::FloatCmp                      0      0.00%     80.00% # Class of executed instruction
system.cpu1.op_class::FloatCvt                      0      0.00%     80.00% # Class of executed instruction
system.cpu1.op_class::FloatMult                     0      0.00%     80.00% # Class of executed instruction
system.cpu1.op_class::FloatMultAcc                  0      0.00%     80.00% # Class of executed instruction
system.cpu1.op_class::FloatDiv                      0      0.00%     80.00% # Class of executed instruction
system.cpu1.op_class::FloatMisc                     0      0.00%     80.00% # Class of executed instruction
system.cpu1.op_class::FloatSqrt                     0      0.00%     80.00% # Class of executed instruction
system.cpu1.op_class::SimdAdd                       0      0.00%     80.00% # Class of executed instruction
system.cpu1.op_class::SimdAddAcc                    0      0.00%     80.00% # Class of executed instruction
system.cpu1.op_class::SimdAlu                       0      0.00%     80.00% # Class of executed instruction
system.cpu1.op_class::SimdCmp                       0      0.00%     80.00% # Class of executed instruction
system.cpu1.op_class::SimdCvt                       0      0.00%     80.00% # Class of executed instruction
system.cpu1.op_class::SimdMisc                      0      0.00%     80.00% # Class of executed instruction
system.cpu1.op_class::SimdMult                      0      0.00%     80.00% # Class of executed instruction
system.cpu1.op_class::SimdMultAcc                   0      0.00%     80.00% # Class of executed instruction
system.cpu1.op_class::SimdShift                     0      0.00%     80.00% # Class of executed instruction
system.cpu1.op_class::SimdShiftAcc                  0      0.00%     80.00% # Class of executed instruction
system.cpu1.op_class::SimdDiv                       0      0.00%     80.00% # Class of executed instruction
system.cpu1.op_class::SimdSqrt                      0      0.00%     80.00% # Class of executed instruction
system.cpu1.op_class::SimdFloatAdd                  0      0.00%     80.00% # Class of executed instruction
system.cpu1.op_class::SimdFloatAlu                  0      0.00%     80.00% # Class of executed instruction
system.cpu1.op_class::SimdFloatCmp                  0      0.00%     80.00% # Class of executed instruction
system.cpu1.op_class::SimdFloatCvt                  0      0.00%     80.00% # Class of executed instruction
system.cpu1.op_class::SimdFloatDiv                  0      0.00%     80.00% # Class of executed instruction
system.cpu1.op_class::SimdFloatMisc                 0      0.00%     80.00% # Class of executed instruction
system.cpu1.op_class::SimdFloatMult                 0      0.00%     80.00% # Class of executed instruction
system.cpu1.op_class::SimdFloatMultAcc              0      0.00%     80.00% # Class of executed instruction
system.cpu1.op_class::SimdFloatSqrt                 0      0.00%     80.00% # Class of executed instruction
system.cpu1.op_class::SimdReduceAdd                 0      0.00%     80.00% # Class of executed instruction
system.cpu1.op_class::SimdReduceAlu                 0      0.00%     80.00% # Class of executed instruction
system.cpu1.op_class::SimdReduceCmp                 0      0.00%     80.00% # Class of executed instruction
system.cpu1.op_class::SimdFloatReduceAdd            0      0.00%     80.00% # Class of executed instruction
system.cpu1.op_class::SimdFloatReduceCmp            0      0.00%     80.00% # Class of executed instruction
system.cpu1.op_class::SimdAes                       0      0.00%     80.00% # Class of executed instruction
system.cpu1.op_class::SimdAesMix                    0      0.00%     80.00% # Class of executed instruction
system.cpu1.op_class::SimdSha1Hash                  0      0.00%     80.00% # Class of executed instruction
system.cpu1.op_class::SimdSha1Hash2                 0      0.00%     80.00% # Class of executed instruction
system.cpu1.op_class::SimdSha256Hash                0      0.00%     80.00% # Class of executed instruction
system.cpu1.op_class::SimdSha256Hash2               0      0.00%     80.00% # Class of executed instruction
system.cpu1.op_class::SimdShaSigma2                 0      0.00%     80.00% # Class of executed instruction
system.cpu1.op_class::SimdShaSigma3                 0      0.00%     80.00% # Class of executed instruction
system.cpu1.op_class::SimdPredAlu                   0      0.00%     80.00% # Class of executed instruction
system.cpu1.op_class::MemRead                       0      0.00%     80.00% # Class of executed instruction
system.cpu1.op_class::MemWrite                      1     20.00%    100.00% # Class of executed instruction
system.cpu1.op_class::FloatMemRead                  0      0.00%    100.00% # Class of executed instruction
system.cpu1.op_class::FloatMemWrite                 0      0.00%    100.00% # Class of executed instruction
system.cpu1.op_class::IprAccess                     0      0.00%    100.00% # Class of executed instruction
system.cpu1.op_class::InstPrefetch                  0      0.00%    100.00% # Class of executed instruction
system.cpu1.op_class::total                         5                       # Class of executed instruction
system.cpu1.toL2Bus.snoop_filter.hit_multi_requests           29                       # Number of requests hitting in the snoop filter with multiple (>1) holders of the requested data.
system.cpu1.toL2Bus.snoop_filter.hit_multi_snoops            0                       # Number of snoops hitting in the snoop filter with multiple (>1) holders of the requested data.
system.cpu1.toL2Bus.snoop_filter.hit_single_requests        31881                       # Number of requests hitting in the snoop filter with a single holder of the requested data.
system.cpu1.toL2Bus.snoop_filter.hit_single_snoops          325                       # Number of snoops hitting in the snoop filter with a single holder of the requested data.
system.cpu1.toL2Bus.snoop_filter.tot_requests        64557                       # Total number of requests made to the snoop filter.
system.cpu1.toL2Bus.snoop_filter.tot_snoops          325                       # Total number of snoops made to the snoop filter.
system.cpu1.toL3Bus.snoop_filter.hit_multi_requests            0                       # Number of requests hitting in the snoop filter with multiple (>1) holders of the requested data.
system.cpu1.toL3Bus.snoop_filter.hit_multi_snoops            0                       # Number of snoops hitting in the snoop filter with multiple (>1) holders of the requested data.
system.cpu1.toL3Bus.snoop_filter.hit_single_requests        13349                       # Number of requests hitting in the snoop filter with a single holder of the requested data.
system.cpu1.toL3Bus.snoop_filter.hit_single_snoops            0                       # Number of snoops hitting in the snoop filter with a single holder of the requested data.
system.cpu1.toL3Bus.snoop_filter.tot_requests        31116                       # Total number of requests made to the snoop filter.
system.cpu1.toL3Bus.snoop_filter.tot_snoops            0                       # Total number of snoops made to the snoop filter.
system.cpu1.workload.numSyscalls                 9644                       # Number of system calls
system.membus.snoop_filter.hit_multi_requests            0                       # Number of requests hitting in the snoop filter with multiple (>1) holders of the requested data.
system.membus.snoop_filter.hit_multi_snoops            0                       # Number of snoops hitting in the snoop filter with multiple (>1) holders of the requested data.
system.membus.snoop_filter.hit_single_requests            0                       # Number of requests hitting in the snoop filter with a single holder of the requested data.
system.membus.snoop_filter.hit_single_snoops            0                       # Number of snoops hitting in the snoop filter with a single holder of the requested data.
system.membus.snoop_filter.tot_requests         20262                       # Total number of requests made to the snoop filter.
system.membus.snoop_filter.tot_snoops               0                       # Total number of snoops made to the snoop filter.
system.switch_cpus0.Branches                   111680                       # Number of branches fetched
system.switch_cpus0.committedInsts            1000002                       # Number of instructions committed
system.switch_cpus0.committedOps              1538041                       # Number of ops (including micro ops) committed
system.switch_cpus0.dtb.rdAccesses             301209                       # TLB accesses on read requests
system.switch_cpus0.dtb.rdMisses                   14                       # TLB misses on read requests
system.switch_cpus0.dtb.wrAccesses             130194                       # TLB accesses on write requests
system.switch_cpus0.dtb.wrMisses                    3                       # TLB misses on write requests
system.switch_cpus0.idle_fraction            0.000000                       # Percentage of idle cycles
system.switch_cpus0.itb.rdAccesses                  0                       # TLB accesses on read requests
system.switch_cpus0.itb.rdMisses                    0                       # TLB misses on read requests
system.switch_cpus0.itb.wrAccesses            1290589                       # TLB accesses on write requests
system.switch_cpus0.itb.wrMisses                    4                       # TLB misses on write requests
system.switch_cpus0.not_idle_fraction        1.000000                       # Percentage of non-idle cycles
system.switch_cpus0.numCycles                 5268868                       # number of cpu cycles simulated
system.switch_cpus0.numWorkItemsCompleted            0                       # number of work items this cpu completed
system.switch_cpus0.numWorkItemsStarted             0                       # number of work items this cpu started
system.switch_cpus0.num_busy_cycles      5268867.140502                       # Number of busy cycles
system.switch_cpus0.num_cc_register_reads       875756                       # number of times the CC registers were read
system.switch_cpus0.num_cc_register_writes       883718                       # number of times the CC registers were written
system.switch_cpus0.num_conditional_control_insts        67470                       # number of instructions that are conditional controls
system.switch_cpus0.num_fp_alu_accesses           210                       # Number of float alu accesses
system.switch_cpus0.num_fp_insts                  210                       # number of float instructions
system.switch_cpus0.num_fp_register_reads          280                       # number of times the floating registers were read
system.switch_cpus0.num_fp_register_writes          175                       # number of times the floating registers were written
system.switch_cpus0.num_func_calls              41849                       # number of times a function call or return occured
system.switch_cpus0.num_idle_cycles          0.859498                       # Number of idle cycles
system.switch_cpus0.num_int_alu_accesses      1537936                       # Number of integer alu accesses
system.switch_cpus0.num_int_insts             1537936                       # number of integer instructions
system.switch_cpus0.num_int_register_reads      3513206                       # number of times the integer registers were read
system.switch_cpus0.num_int_register_writes      1295992                       # number of times the integer registers were written
system.switch_cpus0.num_load_insts             301209                       # Number of load instructions
system.switch_cpus0.num_mem_refs               431403                       # number of memory refs
system.switch_cpus0.num_store_insts            130194                       # Number of store instructions
system.switch_cpus0.num_vec_alu_accesses            0                       # Number of vector alu accesses
system.switch_cpus0.num_vec_insts                   0                       # number of vector instructions
system.switch_cpus0.num_vec_register_reads            0                       # number of times the vector registers were read
system.switch_cpus0.num_vec_register_writes            0                       # number of times the vector registers were written
system.switch_cpus0.op_class::No_OpClass            0      0.00%      0.00% # Class of executed instruction
system.switch_cpus0.op_class::IntAlu          1106498     71.94%     71.94% # Class of executed instruction
system.switch_cpus0.op_class::IntMult               0      0.00%     71.94% # Class of executed instruction
system.switch_cpus0.op_class::IntDiv                0      0.00%     71.94% # Class of executed instruction
system.switch_cpus0.op_class::FloatAdd              0      0.00%     71.94% # Class of executed instruction
system.switch_cpus0.op_class::FloatCmp              0      0.00%     71.94% # Class of executed instruction
system.switch_cpus0.op_class::FloatCvt              0      0.00%     71.94% # Class of executed instruction
system.switch_cpus0.op_class::FloatMult             0      0.00%     71.94% # Class of executed instruction
system.switch_cpus0.op_class::FloatMultAcc            0      0.00%     71.94% # Class of executed instruction
system.switch_cpus0.op_class::FloatDiv              0      0.00%     71.94% # Class of executed instruction
system.switch_cpus0.op_class::FloatMisc             0      0.00%     71.94% # Class of executed instruction
system.switch_cpus0.op_class::FloatSqrt             0      0.00%     71.94% # Class of executed instruction
system.switch_cpus0.op_class::SimdAdd               0      0.00%     71.94% # Class of executed instruction
system.switch_cpus0.op_class::SimdAddAcc            0      0.00%     71.94% # Class of executed instruction
system.switch_cpus0.op_class::SimdAlu               0      0.00%     71.94% # Class of executed instruction
system.switch_cpus0.op_class::SimdCmp               0      0.00%     71.94% # Class of executed instruction
system.switch_cpus0.op_class::SimdCvt               0      0.00%     71.94% # Class of executed instruction
system.switch_cpus0.op_class::SimdMisc             35      0.00%     71.94% # Class of executed instruction
system.switch_cpus0.op_class::SimdMult              0      0.00%     71.94% # Class of executed instruction
system.switch_cpus0.op_class::SimdMultAcc            0      0.00%     71.94% # Class of executed instruction
system.switch_cpus0.op_class::SimdShift             0      0.00%     71.94% # Class of executed instruction
system.switch_cpus0.op_class::SimdShiftAcc            0      0.00%     71.94% # Class of executed instruction
system.switch_cpus0.op_class::SimdDiv               0      0.00%     71.94% # Class of executed instruction
system.switch_cpus0.op_class::SimdSqrt              0      0.00%     71.94% # Class of executed instruction
system.switch_cpus0.op_class::SimdFloatAdd            0      0.00%     71.94% # Class of executed instruction
system.switch_cpus0.op_class::SimdFloatAlu            0      0.00%     71.94% # Class of executed instruction
system.switch_cpus0.op_class::SimdFloatCmp            0      0.00%     71.94% # Class of executed instruction
system.switch_cpus0.op_class::SimdFloatCvt           70      0.00%     71.95% # Class of executed instruction
system.switch_cpus0.op_class::SimdFloatDiv            0      0.00%     71.95% # Class of executed instruction
system.switch_cpus0.op_class::SimdFloatMisc            0      0.00%     71.95% # Class of executed instruction
system.switch_cpus0.op_class::SimdFloatMult           35      0.00%     71.95% # Class of executed instruction
system.switch_cpus0.op_class::SimdFloatMultAcc            0      0.00%     71.95% # Class of executed instruction
system.switch_cpus0.op_class::SimdFloatSqrt            0      0.00%     71.95% # Class of executed instruction
system.switch_cpus0.op_class::SimdReduceAdd            0      0.00%     71.95% # Class of executed instruction
system.switch_cpus0.op_class::SimdReduceAlu            0      0.00%     71.95% # Class of executed instruction
system.switch_cpus0.op_class::SimdReduceCmp            0      0.00%     71.95% # Class of executed instruction
system.switch_cpus0.op_class::SimdFloatReduceAdd            0      0.00%     71.95% # Class of executed instruction
system.switch_cpus0.op_class::SimdFloatReduceCmp            0      0.00%     71.95% # Class of executed instruction
system.switch_cpus0.op_class::SimdAes               0      0.00%     71.95% # Class of executed instruction
system.switch_cpus0.op_class::SimdAesMix            0      0.00%     71.95% # Class of executed instruction
system.switch_cpus0.op_class::SimdSha1Hash            0      0.00%     71.95% # Class of executed instruction
system.switch_cpus0.op_class::SimdSha1Hash2            0      0.00%     71.95% # Class of executed instruction
system.switch_cpus0.op_class::SimdSha256Hash            0      0.00%     71.95% # Class of executed instruction
system.switch_cpus0.op_class::SimdSha256Hash2            0      0.00%     71.95% # Class of executed instruction
system.switch_cpus0.op_class::SimdShaSigma2            0      0.00%     71.95% # Class of executed instruction
system.switch_cpus0.op_class::SimdShaSigma3            0      0.00%     71.95% # Class of executed instruction
system.switch_cpus0.op_class::SimdPredAlu            0      0.00%     71.95% # Class of executed instruction
system.switch_cpus0.op_class::MemRead          301139     19.58%     91.53% # Class of executed instruction
system.switch_cpus0.op_class::MemWrite         130194      8.46%    100.00% # Class of executed instruction
system.switch_cpus0.op_class::FloatMemRead           70      0.00%    100.00% # Class of executed instruction
system.switch_cpus0.op_class::FloatMemWrite            0      0.00%    100.00% # Class of executed instruction
system.switch_cpus0.op_class::IprAccess             0      0.00%    100.00% # Class of executed instruction
system.switch_cpus0.op_class::InstPrefetch            0      0.00%    100.00% # Class of executed instruction
system.switch_cpus0.op_class::total           1538041                       # Class of executed instruction
system.switch_cpus1.Branches                   212597                       # Number of branches fetched
system.switch_cpus1.committedInsts             945680                       # Number of instructions committed
system.switch_cpus1.committedOps              1914082                       # Number of ops (including micro ops) committed
system.switch_cpus1.dtb.rdAccesses             276135                       # TLB accesses on read requests
system.switch_cpus1.dtb.rdMisses                   40                       # TLB misses on read requests
system.switch_cpus1.dtb.wrAccesses             201706                       # TLB accesses on write requests
system.switch_cpus1.dtb.wrMisses                    3                       # TLB misses on write requests
system.switch_cpus1.idle_fraction            0.000000                       # Percentage of idle cycles
system.switch_cpus1.itb.rdAccesses                  0                       # TLB accesses on read requests
system.switch_cpus1.itb.rdMisses                    0                       # TLB misses on read requests
system.switch_cpus1.itb.wrAccesses            1198901                       # TLB accesses on write requests
system.switch_cpus1.itb.wrMisses                   27                       # TLB misses on write requests
system.switch_cpus1.not_idle_fraction        1.000000                       # Percentage of non-idle cycles
system.switch_cpus1.numCycles                 5268868                       # number of cpu cycles simulated
system.switch_cpus1.numWorkItemsCompleted            0                       # number of work items this cpu completed
system.switch_cpus1.numWorkItemsStarted             0                       # number of work items this cpu started
system.switch_cpus1.num_busy_cycles      5268867.140502                       # Number of busy cycles
system.switch_cpus1.num_cc_register_reads       792573                       # number of times the CC registers were read
system.switch_cpus1.num_cc_register_writes       424926                       # number of times the CC registers were written
system.switch_cpus1.num_conditional_control_insts        96852                       # number of instructions that are conditional controls
system.switch_cpus1.num_fp_alu_accesses         15556                       # Number of float alu accesses
system.switch_cpus1.num_fp_insts                15556                       # number of float instructions
system.switch_cpus1.num_fp_register_reads        26112                       # number of times the floating registers were read
system.switch_cpus1.num_fp_register_writes        13682                       # number of times the floating registers were written
system.switch_cpus1.num_func_calls             100302                       # number of times a function call or return occured
system.switch_cpus1.num_idle_cycles          0.859498                       # Number of idle cycles
system.switch_cpus1.num_int_alu_accesses      1894420                       # Number of integer alu accesses
system.switch_cpus1.num_int_insts             1894420                       # number of integer instructions
system.switch_cpus1.num_int_register_reads      4016074                       # number of times the integer registers were read
system.switch_cpus1.num_int_register_writes      1486033                       # number of times the integer registers were written
system.switch_cpus1.num_load_insts             276133                       # Number of load instructions
system.switch_cpus1.num_mem_refs               477837                       # number of memory refs
system.switch_cpus1.num_store_insts            201704                       # Number of store instructions
system.switch_cpus1.num_vec_alu_accesses            0                       # Number of vector alu accesses
system.switch_cpus1.num_vec_insts                   0                       # number of vector instructions
system.switch_cpus1.num_vec_register_reads            0                       # number of times the vector registers were read
system.switch_cpus1.num_vec_register_writes            0                       # number of times the vector registers were written
system.switch_cpus1.op_class::No_OpClass         6380      0.33%      0.33% # Class of executed instruction
system.switch_cpus1.op_class::IntAlu          1415615     73.96%     74.29% # Class of executed instruction
system.switch_cpus1.op_class::IntMult             884      0.05%     74.34% # Class of executed instruction
system.switch_cpus1.op_class::IntDiv             2170      0.11%     74.45% # Class of executed instruction
system.switch_cpus1.op_class::FloatAdd            620      0.03%     74.48% # Class of executed instruction
system.switch_cpus1.op_class::FloatCmp              0      0.00%     74.48% # Class of executed instruction
system.switch_cpus1.op_class::FloatCvt              0      0.00%     74.48% # Class of executed instruction
system.switch_cpus1.op_class::FloatMult             0      0.00%     74.48% # Class of executed instruction
system.switch_cpus1.op_class::FloatMultAcc            0      0.00%     74.48% # Class of executed instruction
system.switch_cpus1.op_class::FloatDiv              0      0.00%     74.48% # Class of executed instruction
system.switch_cpus1.op_class::FloatMisc             0      0.00%     74.48% # Class of executed instruction
system.switch_cpus1.op_class::FloatSqrt             0      0.00%     74.48% # Class of executed instruction
system.switch_cpus1.op_class::SimdAdd               0      0.00%     74.48% # Class of executed instruction
system.switch_cpus1.op_class::SimdAddAcc            0      0.00%     74.48% # Class of executed instruction
system.switch_cpus1.op_class::SimdAlu            2488      0.13%     74.61% # Class of executed instruction
system.switch_cpus1.op_class::SimdCmp               0      0.00%     74.61% # Class of executed instruction
system.switch_cpus1.op_class::SimdCvt            2494      0.13%     74.74% # Class of executed instruction
system.switch_cpus1.op_class::SimdMisc           5594      0.29%     75.04% # Class of executed instruction
system.switch_cpus1.op_class::SimdMult              0      0.00%     75.04% # Class of executed instruction
system.switch_cpus1.op_class::SimdMultAcc            0      0.00%     75.04% # Class of executed instruction
system.switch_cpus1.op_class::SimdShift             0      0.00%     75.04% # Class of executed instruction
system.switch_cpus1.op_class::SimdShiftAcc            0      0.00%     75.04% # Class of executed instruction
system.switch_cpus1.op_class::SimdDiv               0      0.00%     75.04% # Class of executed instruction
system.switch_cpus1.op_class::SimdSqrt              0      0.00%     75.04% # Class of executed instruction
system.switch_cpus1.op_class::SimdFloatAdd            0      0.00%     75.04% # Class of executed instruction
system.switch_cpus1.op_class::SimdFloatAlu            0      0.00%     75.04% # Class of executed instruction
system.switch_cpus1.op_class::SimdFloatCmp            0      0.00%     75.04% # Class of executed instruction
system.switch_cpus1.op_class::SimdFloatCvt            0      0.00%     75.04% # Class of executed instruction
system.switch_cpus1.op_class::SimdFloatDiv            0      0.00%     75.04% # Class of executed instruction
system.switch_cpus1.op_class::SimdFloatMisc            0      0.00%     75.04% # Class of executed instruction
system.switch_cpus1.op_class::SimdFloatMult            0      0.00%     75.04% # Class of executed instruction
system.switch_cpus1.op_class::SimdFloatMultAcc            0      0.00%     75.04% # Class of executed instruction
system.switch_cpus1.op_class::SimdFloatSqrt            0      0.00%     75.04% # Class of executed instruction
system.switch_cpus1.op_class::SimdReduceAdd            0      0.00%     75.04% # Class of executed instruction
system.switch_cpus1.op_class::SimdReduceAlu            0      0.00%     75.04% # Class of executed instruction
system.switch_cpus1.op_class::SimdReduceCmp            0      0.00%     75.04% # Class of executed instruction
system.switch_cpus1.op_class::SimdFloatReduceAdd            0      0.00%     75.04% # Class of executed instruction
system.switch_cpus1.op_class::SimdFloatReduceCmp            0      0.00%     75.04% # Class of executed instruction
system.switch_cpus1.op_class::SimdAes               0      0.00%     75.04% # Class of executed instruction
system.switch_cpus1.op_class::SimdAesMix            0      0.00%     75.04% # Class of executed instruction
system.switch_cpus1.op_class::SimdSha1Hash            0      0.00%     75.04% # Class of executed instruction
system.switch_cpus1.op_class::SimdSha1Hash2            0      0.00%     75.04% # Class of executed instruction
system.switch_cpus1.op_class::SimdSha256Hash            0      0.00%     75.04% # Class of executed instruction
system.switch_cpus1.op_class::SimdSha256Hash2            0      0.00%     75.04% # Class of executed instruction
system.switch_cpus1.op_class::SimdShaSigma2            0      0.00%     75.04% # Class of executed instruction
system.switch_cpus1.op_class::SimdShaSigma3            0      0.00%     75.04% # Class of executed instruction
system.switch_cpus1.op_class::SimdPredAlu            0      0.00%     75.04% # Class of executed instruction
system.switch_cpus1.op_class::MemRead          274253     14.33%     89.36% # Class of executed instruction
system.switch_cpus1.op_class::MemWrite         201084     10.51%     99.87% # Class of executed instruction
system.switch_cpus1.op_class::FloatMemRead         1880      0.10%     99.97% # Class of executed instruction
system.switch_cpus1.op_class::FloatMemWrite          620      0.03%    100.00% # Class of executed instruction
system.switch_cpus1.op_class::IprAccess             0      0.00%    100.00% # Class of executed instruction
system.switch_cpus1.op_class::InstPrefetch            0      0.00%    100.00% # Class of executed instruction
system.switch_cpus1.op_class::total           1914082                       # Class of executed instruction
system.switch_cpus_10.branchPred.BTBCorrect            0                       # Number of correct BTB predictions (this stat may not work properly.
system.switch_cpus_10.branchPred.BTBHitPct     0.000000                       # BTB Hit Percentage
system.switch_cpus_10.branchPred.BTBHits            0                       # Number of BTB hits
system.switch_cpus_10.branchPred.BTBLookups      5211255                       # Number of BTB lookups
system.switch_cpus_10.branchPred.RASInCorrect            0                       # Number of incorrect RAS predictions.
system.switch_cpus_10.branchPred.condIncorrect       232338                       # Number of conditional branches incorrect
system.switch_cpus_10.branchPred.condPredicted      5266761                       # Number of conditional branches predicted
system.switch_cpus_10.branchPred.indirectHits      3403037                       # Number of indirect target hits.
system.switch_cpus_10.branchPred.indirectLookups      5211255                       # Number of indirect predictor lookups.
system.switch_cpus_10.branchPred.indirectMisses      1808218                       # Number of indirect misses.
system.switch_cpus_10.branchPred.lookups      7643723                       # Number of BP lookups
system.switch_cpus_10.branchPred.usedRAS      1106591                       # Number of times the RAS was used to get a target.
system.switch_cpus_10.branchPredindirectMispredicted       136141                       # Number of mispredicted indirect branches.
system.switch_cpus_10.cc_regfile_reads       46518162                       # number of cc regfile reads
system.switch_cpus_10.cc_regfile_writes      45505109                       # number of cc regfile writes
system.switch_cpus_10.commit.amos                   0                       # Number of atomic instructions committed
system.switch_cpus_10.commit.branchMispredicts       232338                       # The number of times a branch was mispredicted
system.switch_cpus_10.commit.branches         5713672                       # Number of branches committed
system.switch_cpus_10.commit.bw_lim_events      3022929                       # number cycles where commit BW limit reached
system.switch_cpus_10.commit.commitSquashedInsts      9162710                       # The number of squashed insts skipped by commit
system.switch_cpus_10.commit.committedInsts     50000000                       # Number of instructions committed
system.switch_cpus_10.commit.committedOps     77212095                       # Number of ops (including micro ops) committed
system.switch_cpus_10.commit.committed_per_cycle::samples     30171355                       # Number of insts commited each cycle
system.switch_cpus_10.commit.committed_per_cycle::mean     2.559119                       # Number of insts commited each cycle
system.switch_cpus_10.commit.committed_per_cycle::stdev     2.378177                       # Number of insts commited each cycle
system.switch_cpus_10.commit.committed_per_cycle::underflows            0      0.00%      0.00% # Number of insts commited each cycle
system.switch_cpus_10.commit.committed_per_cycle::0      4417388     14.64%     14.64% # Number of insts commited each cycle
system.switch_cpus_10.commit.committed_per_cycle::1      8419028     27.90%     42.55% # Number of insts commited each cycle
system.switch_cpus_10.commit.committed_per_cycle::2      6746868     22.36%     64.91% # Number of insts commited each cycle
system.switch_cpus_10.commit.committed_per_cycle::3      3469364     11.50%     76.41% # Number of insts commited each cycle
system.switch_cpus_10.commit.committed_per_cycle::4      1387396      4.60%     81.00% # Number of insts commited each cycle
system.switch_cpus_10.commit.committed_per_cycle::5      1317238      4.37%     85.37% # Number of insts commited each cycle
system.switch_cpus_10.commit.committed_per_cycle::6      1165975      3.86%     89.23% # Number of insts commited each cycle
system.switch_cpus_10.commit.committed_per_cycle::7       225169      0.75%     89.98% # Number of insts commited each cycle
system.switch_cpus_10.commit.committed_per_cycle::8      3022929     10.02%    100.00% # Number of insts commited each cycle
system.switch_cpus_10.commit.committed_per_cycle::overflows            0      0.00%    100.00% # Number of insts commited each cycle
system.switch_cpus_10.commit.committed_per_cycle::min_value            0                       # Number of insts commited each cycle
system.switch_cpus_10.commit.committed_per_cycle::max_value            8                       # Number of insts commited each cycle
system.switch_cpus_10.commit.committed_per_cycle::total     30171355                       # Number of insts commited each cycle
system.switch_cpus_10.commit.fp_insts            4608                       # Number of committed floating point instructions.
system.switch_cpus_10.commit.function_calls      1045512                       # Number of function calls committed.
system.switch_cpus_10.commit.int_insts       77209791                       # Number of committed integer instructions.
system.switch_cpus_10.commit.loads           15182132                       # Number of loads committed
system.switch_cpus_10.commit.membars                0                       # Number of memory barriers committed
system.switch_cpus_10.commit.op_class_0::No_OpClass            0      0.00%      0.00% # Class of committed instruction
system.switch_cpus_10.commit.op_class_0::IntAlu     55521483     71.91%     71.91% # Class of committed instruction
system.switch_cpus_10.commit.op_class_0::IntMult            0      0.00%     71.91% # Class of committed instruction
system.switch_cpus_10.commit.op_class_0::IntDiv            0      0.00%     71.91% # Class of committed instruction
system.switch_cpus_10.commit.op_class_0::FloatAdd            0      0.00%     71.91% # Class of committed instruction
system.switch_cpus_10.commit.op_class_0::FloatCmp            0      0.00%     71.91% # Class of committed instruction
system.switch_cpus_10.commit.op_class_0::FloatCvt            0      0.00%     71.91% # Class of committed instruction
system.switch_cpus_10.commit.op_class_0::FloatMult            0      0.00%     71.91% # Class of committed instruction
system.switch_cpus_10.commit.op_class_0::FloatMultAcc            0      0.00%     71.91% # Class of committed instruction
system.switch_cpus_10.commit.op_class_0::FloatDiv            0      0.00%     71.91% # Class of committed instruction
system.switch_cpus_10.commit.op_class_0::FloatMisc            0      0.00%     71.91% # Class of committed instruction
system.switch_cpus_10.commit.op_class_0::FloatSqrt            0      0.00%     71.91% # Class of committed instruction
system.switch_cpus_10.commit.op_class_0::SimdAdd            0      0.00%     71.91% # Class of committed instruction
system.switch_cpus_10.commit.op_class_0::SimdAddAcc            0      0.00%     71.91% # Class of committed instruction
system.switch_cpus_10.commit.op_class_0::SimdAlu            0      0.00%     71.91% # Class of committed instruction
system.switch_cpus_10.commit.op_class_0::SimdCmp            0      0.00%     71.91% # Class of committed instruction
system.switch_cpus_10.commit.op_class_0::SimdCvt            0      0.00%     71.91% # Class of committed instruction
system.switch_cpus_10.commit.op_class_0::SimdMisc          768      0.00%     71.91% # Class of committed instruction
system.switch_cpus_10.commit.op_class_0::SimdMult            0      0.00%     71.91% # Class of committed instruction
system.switch_cpus_10.commit.op_class_0::SimdMultAcc            0      0.00%     71.91% # Class of committed instruction
system.switch_cpus_10.commit.op_class_0::SimdShift            0      0.00%     71.91% # Class of committed instruction
system.switch_cpus_10.commit.op_class_0::SimdShiftAcc            0      0.00%     71.91% # Class of committed instruction
system.switch_cpus_10.commit.op_class_0::SimdDiv            0      0.00%     71.91% # Class of committed instruction
system.switch_cpus_10.commit.op_class_0::SimdSqrt            0      0.00%     71.91% # Class of committed instruction
system.switch_cpus_10.commit.op_class_0::SimdFloatAdd            0      0.00%     71.91% # Class of committed instruction
system.switch_cpus_10.commit.op_class_0::SimdFloatAlu            0      0.00%     71.91% # Class of committed instruction
system.switch_cpus_10.commit.op_class_0::SimdFloatCmp            0      0.00%     71.91% # Class of committed instruction
system.switch_cpus_10.commit.op_class_0::SimdFloatCvt         1536      0.00%     71.91% # Class of committed instruction
system.switch_cpus_10.commit.op_class_0::SimdFloatDiv            0      0.00%     71.91% # Class of committed instruction
system.switch_cpus_10.commit.op_class_0::SimdFloatMisc            0      0.00%     71.91% # Class of committed instruction
system.switch_cpus_10.commit.op_class_0::SimdFloatMult          768      0.00%     71.91% # Class of committed instruction
system.switch_cpus_10.commit.op_class_0::SimdFloatMultAcc            0      0.00%     71.91% # Class of committed instruction
system.switch_cpus_10.commit.op_class_0::SimdFloatSqrt            0      0.00%     71.91% # Class of committed instruction
system.switch_cpus_10.commit.op_class_0::SimdReduceAdd            0      0.00%     71.91% # Class of committed instruction
system.switch_cpus_10.commit.op_class_0::SimdReduceAlu            0      0.00%     71.91% # Class of committed instruction
system.switch_cpus_10.commit.op_class_0::SimdReduceCmp            0      0.00%     71.91% # Class of committed instruction
system.switch_cpus_10.commit.op_class_0::SimdFloatReduceAdd            0      0.00%     71.91% # Class of committed instruction
system.switch_cpus_10.commit.op_class_0::SimdFloatReduceCmp            0      0.00%     71.91% # Class of committed instruction
system.switch_cpus_10.commit.op_class_0::SimdAes            0      0.00%     71.91% # Class of committed instruction
system.switch_cpus_10.commit.op_class_0::SimdAesMix            0      0.00%     71.91% # Class of committed instruction
system.switch_cpus_10.commit.op_class_0::SimdSha1Hash            0      0.00%     71.91% # Class of committed instruction
system.switch_cpus_10.commit.op_class_0::SimdSha1Hash2            0      0.00%     71.91% # Class of committed instruction
system.switch_cpus_10.commit.op_class_0::SimdSha256Hash            0      0.00%     71.91% # Class of committed instruction
system.switch_cpus_10.commit.op_class_0::SimdSha256Hash2            0      0.00%     71.91% # Class of committed instruction
system.switch_cpus_10.commit.op_class_0::SimdShaSigma2            0      0.00%     71.91% # Class of committed instruction
system.switch_cpus_10.commit.op_class_0::SimdShaSigma3            0      0.00%     71.91% # Class of committed instruction
system.switch_cpus_10.commit.op_class_0::SimdPredAlu            0      0.00%     71.91% # Class of committed instruction
system.switch_cpus_10.commit.op_class_0::MemRead     15180596     19.66%     91.57% # Class of committed instruction
system.switch_cpus_10.commit.op_class_0::MemWrite      6505408      8.43%    100.00% # Class of committed instruction
system.switch_cpus_10.commit.op_class_0::FloatMemRead         1536      0.00%    100.00% # Class of committed instruction
system.switch_cpus_10.commit.op_class_0::FloatMemWrite            0      0.00%    100.00% # Class of committed instruction
system.switch_cpus_10.commit.op_class_0::IprAccess            0      0.00%    100.00% # Class of committed instruction
system.switch_cpus_10.commit.op_class_0::InstPrefetch            0      0.00%    100.00% # Class of committed instruction
system.switch_cpus_10.commit.op_class_0::total     77212095                       # Class of committed instruction
system.switch_cpus_10.commit.refs            21687540                       # Number of memory references committed
system.switch_cpus_10.commit.swp_count              0                       # Number of s/w prefetches committed
system.switch_cpus_10.commit.vec_insts              0                       # Number of committed Vector instructions.
system.switch_cpus_10.committedInsts         50000000                       # Number of Instructions Simulated
system.switch_cpus_10.committedOps           77212095                       # Number of Ops (including micro ops) Simulated
system.switch_cpus_10.cpi                    0.630243                       # CPI: Cycles Per Instruction
system.switch_cpus_10.cpi_total              0.630243                       # CPI: Total CPI of All Threads
system.switch_cpus_10.decode.BlockedCycles     10073574                       # Number of cycles decode is blocked
system.switch_cpus_10.decode.DecodedInsts     88815123                       # Number of instructions handled by decode
system.switch_cpus_10.decode.IdleCycles       8170246                       # Number of cycles decode is idle
system.switch_cpus_10.decode.RunCycles       10239194                       # Number of cycles decode is running
system.switch_cpus_10.decode.SquashCycles       232416                       # Number of cycles decode is squashing
system.switch_cpus_10.decode.UnblockCycles      2796600                       # Number of cycles decode is unblocking
system.switch_cpus_10.dtb.rdAccesses         16148816                       # TLB accesses on read requests
system.switch_cpus_10.dtb.rdMisses                 45                       # TLB misses on read requests
system.switch_cpus_10.dtb.wrAccesses          6855158                       # TLB accesses on write requests
system.switch_cpus_10.dtb.wrMisses                 32                       # TLB misses on write requests
system.switch_cpus_10.fetch.Branches          7643723                       # Number of branches that fetch encountered
system.switch_cpus_10.fetch.CacheLines        5436288                       # Number of cache lines fetched
system.switch_cpus_10.fetch.Cycles           20341977                       # Number of cycles fetch has run and was not squashing or blocked
system.switch_cpus_10.fetch.IcacheSquashes        94490                       # Number of outstanding Icache misses that were squashed
system.switch_cpus_10.fetch.Insts            56811219                       # Number of instructions fetch has processed
system.switch_cpus_10.fetch.SquashCycles       464832                       # Number of cycles fetch has spent squashing
system.switch_cpus_10.fetch.branchRate       0.242564                       # Number of branch fetches per cycle
system.switch_cpus_10.fetch.icacheStallCycles     10937642                       # Number of cycles fetch is stalled on an Icache miss
system.switch_cpus_10.fetch.predictedBranches      4509628                       # Number of branches that fetch has predicted taken
system.switch_cpus_10.fetch.rate             1.802836                       # Number of inst fetches per cycle
system.switch_cpus_10.fetch.rateDist::samples     31512035                       # Number of instructions fetched each cycle (Total)
system.switch_cpus_10.fetch.rateDist::mean     2.857561                       # Number of instructions fetched each cycle (Total)
system.switch_cpus_10.fetch.rateDist::stdev     3.462653                       # Number of instructions fetched each cycle (Total)
system.switch_cpus_10.fetch.rateDist::underflows            0      0.00%      0.00% # Number of instructions fetched each cycle (Total)
system.switch_cpus_10.fetch.rateDist::0      16530777     52.46%     52.46% # Number of instructions fetched each cycle (Total)
system.switch_cpus_10.fetch.rateDist::1        806389      2.56%     55.02% # Number of instructions fetched each cycle (Total)
system.switch_cpus_10.fetch.rateDist::2       1924080      6.11%     61.12% # Number of instructions fetched each cycle (Total)
system.switch_cpus_10.fetch.rateDist::3        778481      2.47%     63.59% # Number of instructions fetched each cycle (Total)
system.switch_cpus_10.fetch.rateDist::4        397983      1.26%     64.86% # Number of instructions fetched each cycle (Total)
system.switch_cpus_10.fetch.rateDist::5       1765505      5.60%     70.46% # Number of instructions fetched each cycle (Total)
system.switch_cpus_10.fetch.rateDist::6        426258      1.35%     71.81% # Number of instructions fetched each cycle (Total)
system.switch_cpus_10.fetch.rateDist::7        979940      3.11%     74.92% # Number of instructions fetched each cycle (Total)
system.switch_cpus_10.fetch.rateDist::8       7902622     25.08%    100.00% # Number of instructions fetched each cycle (Total)
system.switch_cpus_10.fetch.rateDist::overflows            0      0.00%    100.00% # Number of instructions fetched each cycle (Total)
system.switch_cpus_10.fetch.rateDist::min_value            0                       # Number of instructions fetched each cycle (Total)
system.switch_cpus_10.fetch.rateDist::max_value            8                       # Number of instructions fetched each cycle (Total)
system.switch_cpus_10.fetch.rateDist::total     31512035                       # Number of instructions fetched each cycle (Total)
system.switch_cpus_10.fp_regfile_reads          12969                       # number of floating regfile reads
system.switch_cpus_10.fp_regfile_writes         10025                       # number of floating regfile writes
system.switch_cpus_10.idleCycles                  106                       # Total number of cycles that the CPU has spent unscheduled due to idling
system.switch_cpus_10.iew.branchMispredicts       326512                       # Number of branch mispredicts detected at execute
system.switch_cpus_10.iew.exec_branches       6253914                       # Number of branches executed
system.switch_cpus_10.iew.exec_nop                  0                       # number of nop insts executed
system.switch_cpus_10.iew.exec_rate          2.638333                       # Inst execution rate
system.switch_cpus_10.iew.exec_refs          23003974                       # number of memory reference insts executed
system.switch_cpus_10.iew.exec_stores         6855158                       # Number of stores executed
system.switch_cpus_10.iew.exec_swp                  0                       # number of swp insts executed
system.switch_cpus_10.iew.iewBlockCycles      1109242                       # Number of cycles IEW is blocking
system.switch_cpus_10.iew.iewDispLoadInsts     16666202                       # Number of dispatched load instructions
system.switch_cpus_10.iew.iewDispNonSpecInsts            0                       # Number of dispatched non-speculative instructions
system.switch_cpus_10.iew.iewDispSquashedInsts         4274                       # Number of squashed instructions skipped by dispatch
system.switch_cpus_10.iew.iewDispStoreInsts      7094274                       # Number of dispatched store instructions
system.switch_cpus_10.iew.iewDispatchedInsts     86374815                       # Number of instructions dispatched to IQ
system.switch_cpus_10.iew.iewExecLoadInsts     16148816                       # Number of load instructions executed
system.switch_cpus_10.iew.iewExecSquashedInsts       496009                       # Number of squashed instructions skipped in execute
system.switch_cpus_10.iew.iewExecutedInsts     83139534                       # Number of executed instructions
system.switch_cpus_10.iew.iewIQFullEvents           31                       # Number of times the IQ has become full, causing a stall
system.switch_cpus_10.iew.iewIdleCycles             0                       # Number of cycles IEW is idle
system.switch_cpus_10.iew.iewLSQFullEvents       114445                       # Number of times the LSQ has become full, causing a stall
system.switch_cpus_10.iew.iewSquashCycles       232416                       # Number of cycles IEW is squashing
system.switch_cpus_10.iew.iewUnblockCycles       114489                       # Number of cycles IEW is unblocking
system.switch_cpus_10.iew.lsq.thread0.blockedLoads            0                       # Number of blocked loads due to partial load-store forwarding
system.switch_cpus_10.iew.lsq.thread0.cacheBlocked            0                       # Number of times an access to memory failed due to the cache being blocked
system.switch_cpus_10.iew.lsq.thread0.forwLoads      6475909                       # Number of loads that had data forwarded from stores
system.switch_cpus_10.iew.lsq.thread0.ignoredResponses         3239                       # Number of memory responses ignored because the instruction is squashed
system.switch_cpus_10.iew.lsq.thread0.invAddrLoads            0                       # Number of loads ignored due to an invalid address
system.switch_cpus_10.iew.lsq.thread0.invAddrSwpfs            0                       # Number of software prefetches ignored due to an invalid address
system.switch_cpus_10.iew.lsq.thread0.memOrderViolation           80                       # Number of memory ordering violations
system.switch_cpus_10.iew.lsq.thread0.rescheduledLoads            0                       # Number of loads that were rescheduled
system.switch_cpus_10.iew.lsq.thread0.squashedLoads      1484068                       # Number of loads squashed
system.switch_cpus_10.iew.lsq.thread0.squashedStores       588865                       # Number of stores squashed
system.switch_cpus_10.iew.memOrderViolationEvents           80                       # Number of memory order violations
system.switch_cpus_10.iew.predictedNotTakenIncorrect       256285                       # Number of branches that were predicted not taken incorrectly
system.switch_cpus_10.iew.predictedTakenIncorrect        70227                       # Number of branches that were predicted taken incorrectly
system.switch_cpus_10.iew.wb_consumers      114653267                       # num instructions consuming a value
system.switch_cpus_10.iew.wb_count           82781600                       # cumulative count of insts written-back
system.switch_cpus_10.iew.wb_fanout          0.542864                       # average fanout of values written-back
system.switch_cpus_10.iew.wb_producers       62241126                       # num instructions producing a value
system.switch_cpus_10.iew.wb_rate            2.626975                       # insts written-back per cycle
system.switch_cpus_10.iew.wb_sent            82836737                       # cumulative count of insts sent to commit
system.switch_cpus_10.int_regfile_reads     150123665                       # number of integer regfile reads
system.switch_cpus_10.int_regfile_writes     69695875                       # number of integer regfile writes
system.switch_cpus_10.ipc                    1.586690                       # IPC: Instructions Per Cycle
system.switch_cpus_10.ipc_total              1.586690                       # IPC: Total IPC of All Threads
system.switch_cpus_10.iq.FU_type_0::No_OpClass        22337      0.03%      0.03% # Type of FU issued
system.switch_cpus_10.iq.FU_type_0::IntAlu     60452457     72.28%     72.31% # Type of FU issued
system.switch_cpus_10.iq.FU_type_0::IntMult            0      0.00%     72.31% # Type of FU issued
system.switch_cpus_10.iq.FU_type_0::IntDiv            0      0.00%     72.31% # Type of FU issued
system.switch_cpus_10.iq.FU_type_0::FloatAdd            0      0.00%     72.31% # Type of FU issued
system.switch_cpus_10.iq.FU_type_0::FloatCmp            0      0.00%     72.31% # Type of FU issued
system.switch_cpus_10.iq.FU_type_0::FloatCvt            0      0.00%     72.31% # Type of FU issued
system.switch_cpus_10.iq.FU_type_0::FloatMult            0      0.00%     72.31% # Type of FU issued
system.switch_cpus_10.iq.FU_type_0::FloatMultAcc            0      0.00%     72.31% # Type of FU issued
system.switch_cpus_10.iq.FU_type_0::FloatDiv            0      0.00%     72.31% # Type of FU issued
system.switch_cpus_10.iq.FU_type_0::FloatMisc            0      0.00%     72.31% # Type of FU issued
system.switch_cpus_10.iq.FU_type_0::FloatSqrt            0      0.00%     72.31% # Type of FU issued
system.switch_cpus_10.iq.FU_type_0::SimdAdd            0      0.00%     72.31% # Type of FU issued
system.switch_cpus_10.iq.FU_type_0::SimdAddAcc            0      0.00%     72.31% # Type of FU issued
system.switch_cpus_10.iq.FU_type_0::SimdAlu            0      0.00%     72.31% # Type of FU issued
system.switch_cpus_10.iq.FU_type_0::SimdCmp            0      0.00%     72.31% # Type of FU issued
system.switch_cpus_10.iq.FU_type_0::SimdCvt            0      0.00%     72.31% # Type of FU issued
system.switch_cpus_10.iq.FU_type_0::SimdMisc          850      0.00%     72.31% # Type of FU issued
system.switch_cpus_10.iq.FU_type_0::SimdMult            0      0.00%     72.31% # Type of FU issued
system.switch_cpus_10.iq.FU_type_0::SimdMultAcc            0      0.00%     72.31% # Type of FU issued
system.switch_cpus_10.iq.FU_type_0::SimdShift            0      0.00%     72.31% # Type of FU issued
system.switch_cpus_10.iq.FU_type_0::SimdShiftAcc            0      0.00%     72.31% # Type of FU issued
system.switch_cpus_10.iq.FU_type_0::SimdDiv            0      0.00%     72.31% # Type of FU issued
system.switch_cpus_10.iq.FU_type_0::SimdSqrt            0      0.00%     72.31% # Type of FU issued
system.switch_cpus_10.iq.FU_type_0::SimdFloatAdd            0      0.00%     72.31% # Type of FU issued
system.switch_cpus_10.iq.FU_type_0::SimdFloatAlu            0      0.00%     72.31% # Type of FU issued
system.switch_cpus_10.iq.FU_type_0::SimdFloatCmp            0      0.00%     72.31% # Type of FU issued
system.switch_cpus_10.iq.FU_type_0::SimdFloatCvt         3367      0.00%     72.31% # Type of FU issued
system.switch_cpus_10.iq.FU_type_0::SimdFloatDiv            0      0.00%     72.31% # Type of FU issued
system.switch_cpus_10.iq.FU_type_0::SimdFloatMisc            0      0.00%     72.31% # Type of FU issued
system.switch_cpus_10.iq.FU_type_0::SimdFloatMult         1795      0.00%     72.31% # Type of FU issued
system.switch_cpus_10.iq.FU_type_0::SimdFloatMultAcc            0      0.00%     72.31% # Type of FU issued
system.switch_cpus_10.iq.FU_type_0::SimdFloatSqrt            0      0.00%     72.31% # Type of FU issued
system.switch_cpus_10.iq.FU_type_0::SimdReduceAdd            0      0.00%     72.31% # Type of FU issued
system.switch_cpus_10.iq.FU_type_0::SimdReduceAlu            0      0.00%     72.31% # Type of FU issued
system.switch_cpus_10.iq.FU_type_0::SimdReduceCmp            0      0.00%     72.31% # Type of FU issued
system.switch_cpus_10.iq.FU_type_0::SimdFloatReduceAdd            0      0.00%     72.31% # Type of FU issued
system.switch_cpus_10.iq.FU_type_0::SimdFloatReduceCmp            0      0.00%     72.31% # Type of FU issued
system.switch_cpus_10.iq.FU_type_0::SimdAes            0      0.00%     72.31% # Type of FU issued
system.switch_cpus_10.iq.FU_type_0::SimdAesMix            0      0.00%     72.31% # Type of FU issued
system.switch_cpus_10.iq.FU_type_0::SimdSha1Hash            0      0.00%     72.31% # Type of FU issued
system.switch_cpus_10.iq.FU_type_0::SimdSha1Hash2            0      0.00%     72.31% # Type of FU issued
system.switch_cpus_10.iq.FU_type_0::SimdSha256Hash            0      0.00%     72.31% # Type of FU issued
system.switch_cpus_10.iq.FU_type_0::SimdSha256Hash2            0      0.00%     72.31% # Type of FU issued
system.switch_cpus_10.iq.FU_type_0::SimdShaSigma2            0      0.00%     72.31% # Type of FU issued
system.switch_cpus_10.iq.FU_type_0::SimdShaSigma3            0      0.00%     72.31% # Type of FU issued
system.switch_cpus_10.iq.FU_type_0::SimdPredAlu            0      0.00%     72.31% # Type of FU issued
system.switch_cpus_10.iq.FU_type_0::MemRead     16230535     19.41%     91.72% # Type of FU issued
system.switch_cpus_10.iq.FU_type_0::MemWrite      6917746      8.27%     99.99% # Type of FU issued
system.switch_cpus_10.iq.FU_type_0::FloatMemRead         6459      0.01%    100.00% # Type of FU issued
system.switch_cpus_10.iq.FU_type_0::FloatMemWrite            0      0.00%    100.00% # Type of FU issued
system.switch_cpus_10.iq.FU_type_0::IprAccess            0      0.00%    100.00% # Type of FU issued
system.switch_cpus_10.iq.FU_type_0::InstPrefetch            0      0.00%    100.00% # Type of FU issued
system.switch_cpus_10.iq.FU_type_0::total     83635546                       # Type of FU issued
system.switch_cpus_10.iq.fp_alu_accesses        12472                       # Number of floating point alu accesses
system.switch_cpus_10.iq.fp_inst_queue_reads        24944                       # Number of floating instruction queue reads
system.switch_cpus_10.iq.fp_inst_queue_wakeup_accesses        10061                       # Number of floating instruction queue wakeup accesses
system.switch_cpus_10.iq.fp_inst_queue_writes        35522                       # Number of floating instruction queue writes
system.switch_cpus_10.iq.fu_busy_cnt          1170537                       # FU busy when requested
system.switch_cpus_10.iq.fu_busy_rate        0.013996                       # FU busy rate (busy events/executed inst)
system.switch_cpus_10.iq.fu_full::No_OpClass            0      0.00%      0.00% # attempts to use FU when none available
system.switch_cpus_10.iq.fu_full::IntAlu       547282     46.75%     46.75% # attempts to use FU when none available
system.switch_cpus_10.iq.fu_full::IntMult            0      0.00%     46.75% # attempts to use FU when none available
system.switch_cpus_10.iq.fu_full::IntDiv            0      0.00%     46.75% # attempts to use FU when none available
system.switch_cpus_10.iq.fu_full::FloatAdd            0      0.00%     46.75% # attempts to use FU when none available
system.switch_cpus_10.iq.fu_full::FloatCmp            0      0.00%     46.75% # attempts to use FU when none available
system.switch_cpus_10.iq.fu_full::FloatCvt            0      0.00%     46.75% # attempts to use FU when none available
system.switch_cpus_10.iq.fu_full::FloatMult            0      0.00%     46.75% # attempts to use FU when none available
system.switch_cpus_10.iq.fu_full::FloatMultAcc            0      0.00%     46.75% # attempts to use FU when none available
system.switch_cpus_10.iq.fu_full::FloatDiv            0      0.00%     46.75% # attempts to use FU when none available
system.switch_cpus_10.iq.fu_full::FloatMisc            0      0.00%     46.75% # attempts to use FU when none available
system.switch_cpus_10.iq.fu_full::FloatSqrt            0      0.00%     46.75% # attempts to use FU when none available
system.switch_cpus_10.iq.fu_full::SimdAdd            0      0.00%     46.75% # attempts to use FU when none available
system.switch_cpus_10.iq.fu_full::SimdAddAcc            0      0.00%     46.75% # attempts to use FU when none available
system.switch_cpus_10.iq.fu_full::SimdAlu            0      0.00%     46.75% # attempts to use FU when none available
system.switch_cpus_10.iq.fu_full::SimdCmp            0      0.00%     46.75% # attempts to use FU when none available
system.switch_cpus_10.iq.fu_full::SimdCvt            0      0.00%     46.75% # attempts to use FU when none available
system.switch_cpus_10.iq.fu_full::SimdMisc            0      0.00%     46.75% # attempts to use FU when none available
system.switch_cpus_10.iq.fu_full::SimdMult            0      0.00%     46.75% # attempts to use FU when none available
system.switch_cpus_10.iq.fu_full::SimdMultAcc            0      0.00%     46.75% # attempts to use FU when none available
system.switch_cpus_10.iq.fu_full::SimdShift            0      0.00%     46.75% # attempts to use FU when none available
system.switch_cpus_10.iq.fu_full::SimdShiftAcc            0      0.00%     46.75% # attempts to use FU when none available
system.switch_cpus_10.iq.fu_full::SimdDiv            0      0.00%     46.75% # attempts to use FU when none available
system.switch_cpus_10.iq.fu_full::SimdSqrt            0      0.00%     46.75% # attempts to use FU when none available
system.switch_cpus_10.iq.fu_full::SimdFloatAdd            0      0.00%     46.75% # attempts to use FU when none available
system.switch_cpus_10.iq.fu_full::SimdFloatAlu            0      0.00%     46.75% # attempts to use FU when none available
system.switch_cpus_10.iq.fu_full::SimdFloatCmp            0      0.00%     46.75% # attempts to use FU when none available
system.switch_cpus_10.iq.fu_full::SimdFloatCvt            0      0.00%     46.75% # attempts to use FU when none available
system.switch_cpus_10.iq.fu_full::SimdFloatDiv            0      0.00%     46.75% # attempts to use FU when none available
system.switch_cpus_10.iq.fu_full::SimdFloatMisc            0      0.00%     46.75% # attempts to use FU when none available
system.switch_cpus_10.iq.fu_full::SimdFloatMult            0      0.00%     46.75% # attempts to use FU when none available
system.switch_cpus_10.iq.fu_full::SimdFloatMultAcc            0      0.00%     46.75% # attempts to use FU when none available
system.switch_cpus_10.iq.fu_full::SimdFloatSqrt            0      0.00%     46.75% # attempts to use FU when none available
system.switch_cpus_10.iq.fu_full::SimdReduceAdd            0      0.00%     46.75% # attempts to use FU when none available
system.switch_cpus_10.iq.fu_full::SimdReduceAlu            0      0.00%     46.75% # attempts to use FU when none available
[...]
system.cpu1.l2cache.ReadSharedReq_miss_rate::.switch_cpus_11.data     0.524530                       # miss rate for ReadSharedReq accesses
system.cpu1.l2cache.ReadSharedReq_miss_rate::total     0.540574                       # miss rate for ReadSharedReq accesses
system.cpu1.l2cache.ReadSharedReq_avg_miss_latency::.switch_cpus1.data 69942.981308                       # average ReadSharedReq miss latency
system.cpu1.l2cache.ReadSharedReq_avg_miss_latency::.switch_cpus_11.data 69975.048271                       # average ReadSharedReq miss latency
system.cpu1.l2cache.ReadSharedReq_avg_miss_latency::total 69972.886598                       # average ReadSharedReq miss latency
system.cpu1.l2cache.ReadSharedReq_mshr_misses::.switch_cpus1.data         1177                       # number of ReadSharedReq MSHR misses
system.cpu1.l2cache.ReadSharedReq_mshr_misses::.switch_cpus_11.data        16283                       # number of ReadSharedReq MSHR misses
system.cpu1.l2cache.ReadSharedReq_mshr_misses::total        17460                       # number of ReadSharedReq MSHR misses
system.cpu1.l2cache.ReadSharedReq_mshr_miss_latency::.switch_cpus1.data     81832080                       # number of ReadSharedReq MSHR miss cycles
system.cpu1.l2cache.ReadSharedReq_mshr_miss_latency::.switch_cpus_11.data   1132614117                       # number of ReadSharedReq MSHR miss cycles
system.cpu1.l2cache.ReadSharedReq_mshr_miss_latency::total   1214446197                       # number of ReadSharedReq MSHR miss cycles
system.cpu1.l2cache.ReadSharedReq_mshr_miss_rate::.switch_cpus1.data     0.937102                       # mshr miss rate for ReadSharedReq accesses
system.cpu1.l2cache.ReadSharedReq_mshr_miss_rate::.switch_cpus_11.data     0.524530                       # mshr miss rate for ReadSharedReq accesses
system.cpu1.l2cache.ReadSharedReq_mshr_miss_rate::total     0.540574                       # mshr miss rate for ReadSharedReq accesses
system.cpu1.l2cache.ReadSharedReq_avg_mshr_miss_latency::.switch_cpus1.data 69525.981308                       # average ReadSharedReq mshr miss latency
system.cpu1.l2cache.ReadSharedReq_avg_mshr_miss_latency::.switch_cpus_11.data 69558.073881                       # average ReadSharedReq mshr miss latency
system.cpu1.l2cache.ReadSharedReq_avg_mshr_miss_latency::total 69555.910481                       # average ReadSharedReq mshr miss latency
system.cpu1.l2cache.tags.pwrStateResidencyTicks::UNDEFINED 1308689390871                       # Cumulative time (in ticks) in various power states
system.cpu1.l2cache.tags.tagsinuse          40.522890                       # Cycle average of tags in use
system.cpu1.l2cache.tags.total_refs             64525                       # Total number of references to valid blocks.
system.cpu1.l2cache.tags.sampled_refs           17767                       # Sample count of references to valid blocks.
system.cpu1.l2cache.tags.avg_refs            3.631733                       # Average number of references to valid blocks.
system.cpu1.l2cache.tags.warmup_cycle    1293351708033                       # Cycle when the warmup percentage was hit.
system.cpu1.l2cache.tags.occ_blocks::.cpu1.inst     0.003548                       # Average occupied blocks per requestor
system.cpu1.l2cache.tags.occ_blocks::.cpu1.data     0.011720                       # Average occupied blocks per requestor
system.cpu1.l2cache.tags.occ_blocks::.switch_cpus1.inst     0.662588                       # Average occupied blocks per requestor
system.cpu1.l2cache.tags.occ_blocks::.switch_cpus1.data     6.979887                       # Average occupied blocks per requestor
system.cpu1.l2cache.tags.occ_blocks::.switch_cpus_11.inst     0.171832                       # Average occupied blocks per requestor
system.cpu1.l2cache.tags.occ_blocks::.switch_cpus_11.data    32.693315                       # Average occupied blocks per requestor
system.cpu1.l2cache.tags.occ_percent::.cpu1.inst     0.000001                       # Average percentage of cache occupancy
system.cpu1.l2cache.tags.occ_percent::.cpu1.data     0.000003                       # Average percentage of cache occupancy
system.cpu1.l2cache.tags.occ_percent::.switch_cpus1.inst     0.000162                       # Average percentage of cache occupancy
system.cpu1.l2cache.tags.occ_percent::.switch_cpus1.data     0.001704                       # Average percentage of cache occupancy
system.cpu1.l2cache.tags.occ_percent::.switch_cpus_11.inst     0.000042                       # Average percentage of cache occupancy
system.cpu1.l2cache.tags.occ_percent::.switch_cpus_11.data     0.007982                       # Average percentage of cache occupancy
system.cpu1.l2cache.tags.occ_percent::total     0.009893                       # Average percentage of cache occupancy
system.cpu1.l2cache.tags.occ_task_id_blocks::1024         4096                       # Occupied blocks per task id
system.cpu1.l2cache.tags.age_task_id_blocks_1024::0           12                       # Occupied blocks per task id
system.cpu1.l2cache.tags.age_task_id_blocks_1024::1          124                       # Occupied blocks per task id
system.cpu1.l2cache.tags.age_task_id_blocks_1024::2         1083                       # Occupied blocks per task id
system.cpu1.l2cache.tags.age_task_id_blocks_1024::3         2369                       # Occupied blocks per task id
system.cpu1.l2cache.tags.age_task_id_blocks_1024::4          508                       # Occupied blocks per task id
system.cpu1.l2cache.tags.occ_task_id_percent::1024            1                       # Percentage of cache occupancy per task id
system.cpu1.l2cache.tags.tag_accesses         1050215                       # Number of tag accesses
system.cpu1.l2cache.tags.data_accesses        1050215                       # Number of data accesses
system.cpu1.toL2Bus.pwrStateResidencyTicks::UNDEFINED 1308689390871                       # Cumulative time (in ticks) in various power states
system.cpu1.toL2Bus.trans_dist::ReadResp        32582                       # Transaction distribution
system.cpu1.toL2Bus.trans_dist::WritebackDirty          112                       # Transaction distribution
system.cpu1.toL2Bus.trans_dist::CleanEvict        45439                       # Transaction distribution
system.cpu1.toL2Bus.trans_dist::ReadExReq           94                       # Transaction distribution
system.cpu1.toL2Bus.trans_dist::ReadExResp           94                       # Transaction distribution
system.cpu1.toL2Bus.trans_dist::ReadCleanReq          284                       # Transaction distribution
system.cpu1.toL2Bus.trans_dist::ReadSharedReq        32299                       # Transaction distribution
system.cpu1.toL2Bus.pkt_count_system.cpu1.icache.mem_side::system.cpu1.l2cache.cpu_side          568                       # Packet count per connected master and slave (bytes)
system.cpu1.toL2Bus.pkt_count_system.cpu1.dcache.mem_side::system.cpu1.l2cache.cpu_side        96665                       # Packet count per connected master and slave (bytes)
system.cpu1.toL2Bus.pkt_count::total            97233                       # Packet count per connected master and slave (bytes)
system.cpu1.toL2Bus.pkt_size_system.cpu1.icache.mem_side::system.cpu1.l2cache.cpu_side        18176                       # Cumulative packet size per connected master and slave (bytes)
system.cpu1.toL2Bus.pkt_size_system.cpu1.dcache.mem_side::system.cpu1.l2cache.cpu_side      2079808                       # Cumulative packet size per connected master and slave (bytes)
system.cpu1.toL2Bus.pkt_size::total           2097984                       # Cumulative packet size per connected master and slave (bytes)
system.cpu1.toL2Bus.snoops                      13671                       # Total snoops (count)
system.cpu1.toL2Bus.snoopTraffic                  448                       # Total snoop traffic (bytes)
system.cpu1.toL2Bus.snoop_fanout::samples        46348                       # Request fanout histogram
system.cpu1.toL2Bus.snoop_fanout::mean       0.007659                       # Request fanout histogram
system.cpu1.toL2Bus.snoop_fanout::stdev      0.087183                       # Request fanout histogram
system.cpu1.toL2Bus.snoop_fanout::underflows            0      0.00%      0.00% # Request fanout histogram
system.cpu1.toL2Bus.snoop_fanout::0             45993     99.23%     99.23% # Request fanout histogram
system.cpu1.toL2Bus.snoop_fanout::1               355      0.77%    100.00% # Request fanout histogram
system.cpu1.toL2Bus.snoop_fanout::2                 0      0.00%    100.00% # Request fanout histogram
system.cpu1.toL2Bus.snoop_fanout::3                 0      0.00%    100.00% # Request fanout histogram
system.cpu1.toL2Bus.snoop_fanout::4                 0      0.00%    100.00% # Request fanout histogram
system.cpu1.toL2Bus.snoop_fanout::overflows            0      0.00%    100.00% # Request fanout histogram
system.cpu1.toL2Bus.snoop_fanout::min_value            0                       # Request fanout histogram
system.cpu1.toL2Bus.snoop_fanout::max_value            1                       # Request fanout histogram
system.cpu1.toL2Bus.snoop_fanout::total         46348                       # Request fanout histogram
system.cpu1.toL2Bus.reqLayer0.occupancy      27007005                       # Layer occupancy (ticks)
system.cpu1.toL2Bus.reqLayer0.utilization          0.2                       # Layer utilization (%)
system.cpu1.toL2Bus.respLayer1.occupancy     40521141                       # Layer occupancy (ticks)
system.cpu1.toL2Bus.respLayer1.utilization          0.3                       # Layer utilization (%)
system.cpu1.toL2Bus.respLayer0.occupancy       354033                       # Layer occupancy (ticks)
system.cpu1.toL2Bus.respLayer0.utilization          0.0                       # Layer utilization (%)
system.switch_cpus_10.pwrStateResidencyTicks::OFF  15337683255                       # Cumulative time (in ticks) in various power states
system.switch_cpus_10.dtb.walker.pwrStateResidencyTicks::UNDEFINED 1308689390871                       # Cumulative time (in ticks) in various power states
system.switch_cpus_10.itb.walker.pwrStateResidencyTicks::UNDEFINED 1308689390871                       # Cumulative time (in ticks) in various power states
system.switch_cpus_11.pwrStateResidencyTicks::OFF  15337683255                       # Cumulative time (in ticks) in various power states
system.switch_cpus_11.dtb.walker.pwrStateResidencyTicks::UNDEFINED 1308689390871                       # Cumulative time (in ticks) in various power states
system.switch_cpus_11.itb.walker.pwrStateResidencyTicks::UNDEFINED 1308689390871                       # Cumulative time (in ticks) in various power states
system.cpu_voltage_domain.voltage                   1                       # Voltage in Volts
system.switch_cpus1.numPwrStateTransitions            1                       # Number of power state transitions
system.switch_cpus1.pwrStateResidencyTicks::UNDEFINED 1293351707616                       # Cumulative time (in ticks) in various power states
system.switch_cpus1.pwrStateResidencyTicks::OFF  15337683255                       # Cumulative time (in ticks) in various power states
system.switch_cpus1.dtb.walker.pwrStateResidencyTicks::UNDEFINED 1308689390871                       # Cumulative time (in ticks) in various power states
system.switch_cpus1.itb.walker.pwrStateResidencyTicks::UNDEFINED 1308689390871                       # Cumulative time (in ticks) in various power states
system.mem_ctrls.pwrStateResidencyTicks::UNDEFINED 1308689390871                       # Cumulative time (in ticks) in various power states
system.mem_ctrls.bytes_read::.cpu0.inst            64                       # Number of bytes read from this memory
system.mem_ctrls.bytes_read::.cpu1.inst            64                       # Number of bytes read from this memory
system.mem_ctrls.bytes_read::.cpu1.data            64                       # Number of bytes read from this memory
system.mem_ctrls.bytes_read::.switch_cpus0.inst         1600                       # Number of bytes read from this memory
system.mem_ctrls.bytes_read::.switch_cpus0.data        36800                       # Number of bytes read from this memory
system.mem_ctrls.bytes_read::.switch_cpus1.inst        12672                       # Number of bytes read from this memory
system.mem_ctrls.bytes_read::.switch_cpus1.data        76672                       # Number of bytes read from this memory
system.mem_ctrls.bytes_read::.switch_cpus_10.inst          576                       # Number of bytes read from this memory
system.mem_ctrls.bytes_read::.switch_cpus_10.data       121216                       # Number of bytes read from this memory
system.mem_ctrls.bytes_read::.switch_cpus_11.inst         5440                       # Number of bytes read from this memory
system.mem_ctrls.bytes_read::.switch_cpus_11.data      1041536                       # Number of bytes read from this memory
system.mem_ctrls.bytes_read::total            1296704                       # Number of bytes read from this memory
system.mem_ctrls.bytes_inst_read::.cpu0.inst           64                       # Number of instructions bytes read from this memory
system.mem_ctrls.bytes_inst_read::.cpu1.inst           64                       # Number of instructions bytes read from this memory
system.mem_ctrls.bytes_inst_read::.switch_cpus0.inst         1600                       # Number of instructions bytes read from this memory
system.mem_ctrls.bytes_inst_read::.switch_cpus1.inst        12672                       # Number of instructions bytes read from this memory
system.mem_ctrls.bytes_inst_read::.switch_cpus_10.inst          576                       # Number of instructions bytes read from this memory
system.mem_ctrls.bytes_inst_read::.switch_cpus_11.inst         5440                       # Number of instructions bytes read from this memory
system.mem_ctrls.bytes_inst_read::total         20416                       # Number of instructions bytes read from this memory
system.mem_ctrls.num_reads::.cpu0.inst              1                       # Number of read requests responded to by this memory
system.mem_ctrls.num_reads::.cpu1.inst              1                       # Number of read requests responded to by this memory
system.mem_ctrls.num_reads::.cpu1.data              1                       # Number of read requests responded to by this memory
system.mem_ctrls.num_reads::.switch_cpus0.inst           25                       # Number of read requests responded to by this memory
system.mem_ctrls.num_reads::.switch_cpus0.data          575                       # Number of read requests responded to by this memory
system.mem_ctrls.num_reads::.switch_cpus1.inst          198                       # Number of read requests responded to by this memory
system.mem_ctrls.num_reads::.switch_cpus1.data         1198                       # Number of read requests responded to by this memory
system.mem_ctrls.num_reads::.switch_cpus_10.inst            9                       # Number of read requests responded to by this memory
system.mem_ctrls.num_reads::.switch_cpus_10.data         1894                       # Number of read requests responded to by this memory
system.mem_ctrls.num_reads::.switch_cpus_11.inst           85                       # Number of read requests responded to by this memory
system.mem_ctrls.num_reads::.switch_cpus_11.data        16274                       # Number of read requests responded to by this memory
system.mem_ctrls.num_reads::total               20261                       # Number of read requests responded to by this memory
system.mem_ctrls.bw_read::.cpu0.inst             4173                       # Total read bandwidth from this memory (bytes/s)
system.mem_ctrls.bw_read::.cpu1.inst             4173                       # Total read bandwidth from this memory (bytes/s)
system.mem_ctrls.bw_read::.cpu1.data             4173                       # Total read bandwidth from this memory (bytes/s)
system.mem_ctrls.bw_read::.switch_cpus0.inst       104318                       # Total read bandwidth from this memory (bytes/s)
system.mem_ctrls.bw_read::.switch_cpus0.data      2399319                       # Total read bandwidth from this memory (bytes/s)
system.mem_ctrls.bw_read::.switch_cpus1.inst       826200                       # Total read bandwidth from this memory (bytes/s)
system.mem_ctrls.bw_read::.switch_cpus1.data      4998930                       # Total read bandwidth from this memory (bytes/s)
system.mem_ctrls.bw_read::.switch_cpus_10.inst        37555                       # Total read bandwidth from this memory (bytes/s)
system.mem_ctrls.bw_read::.switch_cpus_10.data      7903149                       # Total read bandwidth from this memory (bytes/s)
system.mem_ctrls.bw_read::.switch_cpus_11.inst       354682                       # Total read bandwidth from this memory (bytes/s)
system.mem_ctrls.bw_read::.switch_cpus_11.data     67906996                       # Total read bandwidth from this memory (bytes/s)
system.mem_ctrls.bw_read::total              84543668                       # Total read bandwidth from this memory (bytes/s)
system.mem_ctrls.bw_inst_read::.cpu0.inst         4173                       # Instruction read bandwidth from this memory (bytes/s)
system.mem_ctrls.bw_inst_read::.cpu1.inst         4173                       # Instruction read bandwidth from this memory (bytes/s)
system.mem_ctrls.bw_inst_read::.switch_cpus0.inst       104318                       # Instruction read bandwidth from this memory (bytes/s)
system.mem_ctrls.bw_inst_read::.switch_cpus1.inst       826200                       # Instruction read bandwidth from this memory (bytes/s)
system.mem_ctrls.bw_inst_read::.switch_cpus_10.inst        37555                       # Instruction read bandwidth from this memory (bytes/s)
system.mem_ctrls.bw_inst_read::.switch_cpus_11.inst       354682                       # Instruction read bandwidth from this memory (bytes/s)
system.mem_ctrls.bw_inst_read::total          1331101                       # Instruction read bandwidth from this memory (bytes/s)
system.mem_ctrls.bw_total::.cpu0.inst            4173                       # Total bandwidth to/from this memory (bytes/s)
system.mem_ctrls.bw_total::.cpu1.inst            4173                       # Total bandwidth to/from this memory (bytes/s)
system.mem_ctrls.bw_total::.cpu1.data            4173                       # Total bandwidth to/from this memory (bytes/s)
system.mem_ctrls.bw_total::.switch_cpus0.inst       104318                       # Total bandwidth to/from this memory (bytes/s)
system.mem_ctrls.bw_total::.switch_cpus0.data      2399319                       # Total bandwidth to/from this memory (bytes/s)
system.mem_ctrls.bw_total::.switch_cpus1.inst       826200                       # Total bandwidth to/from this memory (bytes/s)
system.mem_ctrls.bw_total::.switch_cpus1.data      4998930                       # Total bandwidth to/from this memory (bytes/s)
system.mem_ctrls.bw_total::.switch_cpus_10.inst        37555                       # Total bandwidth to/from this memory (bytes/s)
system.mem_ctrls.bw_total::.switch_cpus_10.data      7903149                       # Total bandwidth to/from this memory (bytes/s)
system.mem_ctrls.bw_total::.switch_cpus_11.inst       354682                       # Total bandwidth to/from this memory (bytes/s)
system.mem_ctrls.bw_total::.switch_cpus_11.data     67906996                       # Total bandwidth to/from this memory (bytes/s)
system.mem_ctrls.bw_total::total             84543668                       # Total bandwidth to/from this memory (bytes/s)
system.cpu_clk_domain.clock                       417                       # Clock period in ticks

---------- End Simulation Statistics   ----------
