
---------- Begin Simulation Statistics ----------
final_tick                               1308874498839                       # Number of ticks from beginning of simulation (restored from checkpoints and never reset)
host_inst_rate                                 193576                       # Simulator instruction rate (inst/s)
host_mem_usage                                4419632                       # Number of bytes of host memory used
host_op_rate                                   331748                       # Simulator op (including micro ops) rate (op/s)
host_seconds                                   406.60                       # Real time elapsed on the host
host_tick_rate                               38177273                       # Simulator tick rate (ticks/s)
sim_freq                                 1000000000000                       # Frequency of simulated ticks
sim_insts                                    78707603                       # Number of instructions simulated
sim_ops                                     134888151                       # Number of ops (including micro ops) simulated
sim_seconds                                  0.015523                       # Number of seconds simulated
sim_ticks                                 15522791223                       # Number of ticks simulated
system.cpu0.committedInsts                          2                       # Number of instructions committed
system.cpu0.committedOps                            4                       # Number of ops (including micro ops) committed
system.cpu0.dtb.rdAccesses                          0                       # TLB accesses on read requests
system.cpu0.dtb.rdMisses                            0                       # TLB misses on read requests
system.cpu0.dtb.wrAccesses                          0                       # TLB accesses on write requests
system.cpu0.dtb.wrMisses                            0                       # TLB misses on write requests
system.cpu0.idle_fraction                           0                       # Percentage of idle cycles
system.cpu0.itb.rdAccesses                          0                       # TLB accesses on read requests
system.cpu0.itb.rdMisses                            0                       # TLB misses on read requests
system.cpu0.itb.wrAccesses                          3                       # TLB accesses on write requests
system.cpu0.itb.wrMisses                            0                       # TLB misses on write requests
system.cpu0.not_idle_fraction                       1                       # Percentage of non-idle cycles
system.cpu0.numCycles                               5                       # number of cpu cycles simulated
system.cpu0.numWorkItemsCompleted                   0                       # number of work items this cpu completed
system.cpu0.numWorkItemsStarted                     0                       # number of work items this cpu started
system.cpu0.num_busy_cycles                         5                       # Number of busy cycles
system.cpu0.num_cc_register_reads                   2                       # number of times the CC registers were read
system.cpu0.num_cc_register_writes                  4                       # number of times the CC registers were written
system.cpu0.num_conditional_control_insts            0                       # number of instructions that are conditional controls
system.cpu0.num_fp_alu_accesses                     0                       # Number of float alu accesses
system.cpu0.num_fp_insts                            0                       # number of float instructions
system.cpu0.num_fp_register_reads                   0                       # number of times the floating registers were read
system.cpu0.num_fp_register_writes                  0                       # number of times the floating registers were written
system.cpu0.num_func_calls                          0                       # number of times a function call or return occured
system.cpu0.num_idle_cycles                         0                       # Number of idle cycles
system.cpu0.num_int_alu_accesses                    4                       # Number of integer alu accesses
system.cpu0.num_int_insts                           4                       # number of integer instructions
system.cpu0.num_int_register_reads                  4                       # number of times the integer registers were read
system.cpu0.num_int_register_writes                 4                       # number of times the integer registers were written
system.cpu0.num_load_insts                          0                       # Number of load instructions
system.cpu0.num_mem_refs                            0                       # number of memory refs
system.cpu0.num_store_insts                         0                       # Number of store instructions
system.cpu0.num_vec_alu_accesses                    0                       # Number of vector alu accesses
system.cpu0.num_vec_insts                           0                       # number of vector instructions
system.cpu0.num_vec_register_reads                  0                       # number of times the vector registers were read
system.cpu0.num_vec_register_writes                 0                       # number of times the vector registers were written
system.cpu0.op_class::No_OpClass                    0      0.00%      0.00% # Class of executed instruction
system.cpu0.op_class::IntAlu                        4    100.00%    100.00% # Class of executed instruction
system.cpu0.op_class::IntMult                       0      0.00%    100.00% # Class of executed instruction
system.cpu0.op_class::IntDiv                        0      0.00%    100.00% # Class of executed instruction
system.cpu0.op_class::FloatAdd                      0      0.00%    100.00% # Class of executed instruction
system.cpu0.op_class::FloatCmp                      0      0.00%    100.00% # Class of executed instruction
system.cpu0.op_class::FloatCvt                      0      0.00%    100.00% # Class of executed instruction
system.cpu0.op_class::FloatMult                     0      0.00%    100.00% # Class of executed instruction
system.cpu0.op_class::FloatMultAcc                  0      0.00%    100.00% # Class of executed instruction
system.cpu0.op_class::FloatDiv                      0      0.00%    100.00% # Class of executed instruction
system.cpu0.op_class::FloatMisc                     0      0.00%    100.00% # Class of executed instruction
system.cpu0.op_class::FloatSqrt                     0      0.00%    100.00% # Class of executed instruction
system.cpu0.op_class::SimdAdd                       0      0.00%    100.00% # Class of executed instruction
system.cpu0.op_class::SimdAddAcc                    0      0.00%    100.00% # Class of executed instruction
system.cpu0.op_class::SimdAlu                       0      0.00%    100.00% # Class of executed instruction
system.cpu0.op_class::SimdCmp                       0      0.00%    100.00% # Class of executed instruction
system.cpu0.op_class::SimdCvt                       0      0.00%    100.00% # Class of executed instruction
system.cpu0.op_class::SimdMisc                      0      0.00%    100.00% # Class of executed instruction
system.cpu0.op_class::SimdMult                      0      0.00%    100.00% # Class of executed instruction
system.cpu0.op_class::SimdMultAcc                   0      0.00%    100.00% # Class of executed instruction
system.cpu0.op_class::SimdShift                     0      0.00%    100.00% # Class of executed instruction
system.cpu0.op_class::SimdShiftAcc                  0      0.00%    100.00% # Class of executed instruction
system.cpu0.op_class::SimdDiv                       0      0.00%    100.00% # Class of executed instruction
system.cpu0.op_class::SimdSqrt                      0      0.00%    100.00% # Class of executed instruction
system.cpu0.op_class::SimdFloatAdd                  0      0.00%    100.00% # Class of executed instruction
system.cpu0.op_class::SimdFloatAlu                  0      0.00%    100.00% # Class of executed instruction
system.cpu0.op_class::SimdFloatCmp                  0      0.00%    100.00% # Class of executed instruction
system.cpu0.op_class::SimdFloatCvt                  0      0.00%    100.00% # Class of executed instruction
system.cpu0.op_class::SimdFloatDiv                  0      0.00%    100.00% # Class of executed instruction
system.cpu0.op_class::SimdFloatMisc                 0      0.00%    100.00% # Class of executed instruction
system.cpu0.op_class::SimdFloatMult                 0      0.00%    100.00% # Class of executed instruction
system.cpu0.op_class::SimdFloatMultAcc              0      0.00%    100.00% # Class of executed instruction
system.cpu0.op_class::SimdFloatSqrt                 0      0.00%    100.00% # Class of executed instruction
system.cpu0.op_class::SimdReduceAdd                 0      0.00%    100.00% # Class of executed instruction
system.cpu0.op_class::SimdReduceAlu                 0      0.00%    100.00% # Class of executed instruction
system.cpu0.op_class::SimdReduceCmp                 0      0.00%    100.00% # Class of executed instruction
system.cpu0.op_class::SimdFloatReduceAdd            0      0.00%    100.00% # Class of executed instruction
system.cpu0.op_class::SimdFloatReduceCmp            0      0.00%    100.00% # Class of executed instruction
system.cpu0.op_class::SimdAes                       0      0.00%    100.00% # Class of executed instruction
system.cpu0.op_class::SimdAesMix                    0      0.00%    100.00% # Class of executed instruction
system.cpu0.op_class::SimdSha1Hash                  0      0.00%    100.00% # Class of executed instruction
system.cpu0.op_class::SimdSha1Hash2                 0      0.00%    100.00% # Class of executed instruction
system.cpu0.op_class::SimdSha256Hash                0      0.00%    100.00% # Class of executed instruction
system.cpu0.op_class::SimdSha256Hash2               0      0.00%    100.00% # Class of executed instruction
system.cpu0.op_class::SimdShaSigma2                 0      0.00%    100.00% # Class of executed instruction
system.cpu0.op_class::SimdShaSigma3                 0      0.00%    100.00% # Class of executed instruction
system.cpu0.op_class::SimdPredAlu                   0      0.00%    100.00% # Class of executed instruction
system.cpu0.op_class::MemRead                       0      0.00%    100.00% # Class of executed instruction
system.cpu0.op_class::MemWrite                      0      0.00%    100.00% # Class of executed instruction
system.cpu0.op_class::FloatMemRead                  0      0.00%    100.00% # Class of executed instruction
system.cpu0.op_class::FloatMemWrite                 0      0.00%    100.00% # Class of executed instruction
system.cpu0.op_class::IprAccess                     0      0.00%    100.00% # Class of executed instruction
system.cpu0.op_class::InstPrefetch                  0      0.00%    100.00% # Class of executed instruction
system.cpu0.op_class::total                         4                       # Class of executed instruction
system.cpu0.toL2Bus.snoop_filter.hit_multi_requests            0                       # Number of requests hitting in the snoop filter with multiple (>1) holders of the requested data.
system.cpu0.toL2Bus.snoop_filter.hit_multi_snoops            0                       # Number of snoops hitting in the snoop filter with multiple (>1) holders of the requested data.
system.cpu0.toL2Bus.snoop_filter.hit_single_requests         3169                       # Number of requests hitting in the snoop filter with a single holder of the requested data.
system.cpu0.toL2Bus.snoop_filter.hit_single_snoops            0                       # Number of snoops hitting in the snoop filter with a single holder of the requested data.
system.cpu0.toL2Bus.snoop_filter.tot_requests         6886                       # Total number of requests made to the snoop filter.
system.cpu0.toL2Bus.snoop_filter.tot_snoops            0                       # Total number of snoops made to the snoop filter.
system.cpu0.toL3Bus.snoop_filter.hit_multi_requests            0                       # Number of requests hitting in the snoop filter with multiple (>1) holders of the requested data.
system.cpu0.toL3Bus.snoop_filter.hit_multi_snoops            0                       # Number of snoops hitting in the snoop filter with multiple (>1) holders of the requested data.
system.cpu0.toL3Bus.snoop_filter.hit_single_requests            0                       # Number of requests hitting in the snoop filter with a single holder of the requested data.
system.cpu0.toL3Bus.snoop_filter.hit_single_snoops            0                       # Number of snoops hitting in the snoop filter with a single holder of the requested data.
system.cpu0.toL3Bus.snoop_filter.tot_requests         2505                       # Total number of requests made to the snoop filter.
system.cpu0.toL3Bus.snoop_filter.tot_snoops            0                       # Total number of snoops made to the snoop filter.
system.cpu0.workload.numSyscalls                    0                       # Number of system calls
system.cpu1.Branches                                1                       # Number of branches fetched
system.cpu1.committedInsts                          1                       # Number of instructions committed
system.cpu1.committedOps                            5                       # Number of ops (including micro ops) committed
system.cpu1.dtb.rdAccesses                          0                       # TLB accesses on read requests
system.cpu1.dtb.rdMisses                            0                       # TLB misses on read requests
system.cpu1.dtb.wrAccesses                          1                       # TLB accesses on write requests
system.cpu1.dtb.wrMisses                            0                       # TLB misses on write requests
system.cpu1.idle_fraction                           0                       # Percentage of idle cycles
system.cpu1.itb.rdAccesses                          0                       # TLB accesses on read requests
system.cpu1.itb.rdMisses                            0                       # TLB misses on read requests
system.cpu1.itb.wrAccesses                          2                       # TLB accesses on write requests
system.cpu1.itb.wrMisses                            0                       # TLB misses on write requests
system.cpu1.not_idle_fraction                       1                       # Percentage of non-idle cycles
system.cpu1.numCycles                               6                       # number of cpu cycles simulated
system.cpu1.numWorkItemsCompleted                   0                       # number of work items this cpu completed
system.cpu1.numWorkItemsStarted                     0                       # number of work items this cpu started
system.cpu1.num_busy_cycles                         6                       # Number of busy cycles
system.cpu1.num_conditional_control_insts            0                       # number of instructions that are conditional controls
system.cpu1.num_fp_alu_accesses                     0                       # Number of float alu accesses
system.cpu1.num_fp_insts                            0                       # number of float instructions
system.cpu1.num_fp_register_reads                   0                       # number of times the floating registers were read
system.cpu1.num_fp_register_writes                  0                       # number of times the floating registers were written
system.cpu1.num_func_calls                          1                       # number of times a function call or return occured
system.cpu1.num_idle_cycles                         0                       # Number of idle cycles
system.cpu1.num_int_alu_accesses                    5                       # Number of integer alu accesses
system.cpu1.num_int_insts                           5                       # number of integer instructions
system.cpu1.num_int_register_reads                  9                       # number of times the integer registers were read
system.cpu1.num_int_register_writes                 3                       # number of times the integer registers were written
system.cpu1.num_load_insts                          0                       # Number of load instructions
system.cpu1.num_mem_refs                            1                       # number of memory refs
system.cpu1.num_store_insts                         1                       # Number of store instructions
system.cpu1.num_vec_alu_accesses                    0                       # Number of vector alu accesses
system.cpu1.num_vec_insts                           0                       # number of vector instructions
system.cpu1.num_vec_register_reads                  0                       # number of times the vector registers were read
system.cpu1.num_vec_register_writes                 0                       # number of times the vector registers were written
system.cpu1.op_class::No_OpClass                    0      0.00%      0.00% # Class of executed instruction
system.cpu1.op_class::IntAlu                        4     80.00%     80.00% # Class of executed instruction
system.cpu1.op_class::IntMult                       0      0.00%     80.00% # Class of executed instruction
system.cpu1.op_class::IntDiv                        0      0.00%     80.00% # Class of executed instruction
system.cpu1.op_class::FloatAdd                      0      0.00%     80.00% # Class of executed instruction
system.cpu1.op_class::FloatCmp                      0      0.00%     80.00% # Class of executed instruction
system.cpu1.op_class::FloatCvt                      0      0.00%     80.00% # Class of executed instruction
system.cpu1.op_class::FloatMult                     0      0.00%     80.00% # Class of executed instruction
system.cpu1.op_class::FloatMultAcc                  0      0.00%     80.00% # Class of executed instruction
system.cpu1.op_class::FloatDiv                      0      0.00%     80.00% # Class of executed instruction
system.cpu1.op_class::FloatMisc                     0      0.00%     80.00% # Class of executed instruction
system.cpu1.op_class::FloatSqrt                     0      0.00%     80.00% # Class of executed instruction
system.cpu1.op_class::SimdAdd                       0      0.00%     80.00% # Class of executed instruction
system.cpu1.op_class::SimdAddAcc                    0      0.00%     80.00% # Class of executed instruction
system.cpu1.op_class::SimdAlu                       0      0.00%     80.00% # Class of executed instruction
system.cpu1.op_class::SimdCmp                       0      0.00%     80.00% # Class of executed instruction
system.cpu1.op_class::SimdCvt                       0      0.00%     80.00% # Class of executed instruction
system.cpu1.op_class::SimdMisc                      0      0.00%     80.00% # Class of executed instruction
system.cpu1.op_class::SimdMult                      0      0.00%     80.00% # Class of executed instruction
system.cpu1.op_class::SimdMultAcc                   0      0.00%     80.00% # Class of executed instruction
system.cpu1.op_class::SimdShift                     0      0.00%     80.00% # Class of executed instruction
system.cpu1.op_class::SimdShiftAcc                  0      0.00%     80.00% # Class of executed instruction
system.cpu1.op_class::SimdDiv                       0      0.00%     80.00% # Class of executed instruction
system.cpu1.op_class::SimdSqrt                      0      0.00%     80.00% # Class of executed instruction
system.cpu1.op_class::SimdFloatAdd                  0      0.00%     80.00% # Class of executed instruction
system.cpu1.op_class::SimdFloatAlu                  0      0.00%     80.00% # Class of executed instruction
system.cpu1.op_class::SimdFloatCmp                  0      0.00%     80.00% # Class of executed instruction
system.cpu1.op_class::SimdFloatCvt                  0      0.00%     80.00% # Class of executed instruction
system.cpu1.op_class::SimdFloatDiv                  0      0.00%     80.00% # Class of executed instruction
system.cpu1.op_class::SimdFloatMisc                 0      0.00%     80.00% # Class of executed instruction
system.cpu1.op_class::SimdFloatMult                 0      0.00%     80.00% # Class of executed instruction
system.cpu1.op_class::SimdFloatMultAcc              0      0.00%     80.00% # Class of executed instruction
system.cpu1.op_class::SimdFloatSqrt                 0      0.00%     80.00% # Class of executed instruction
system.cpu1.op_class::SimdReduceAdd                 0      0.00%     80.00% # Class of executed instruction
system.cpu1.op_class::SimdReduceAlu                 0      0.00%     80.00% # Class of executed instruction
system.cpu1.op_class::SimdReduceCmp                 0      0.00%     80.00% # Class of executed instruction
system.cpu1.op_class::SimdFloatReduceAdd            0      0.00%     80.00% # Class of executed instruction
system.cpu1.op_class::SimdFloatReduceCmp            0      0.00%     80.00% # Class of executed instruction
system.cpu1.op_class::SimdAes                       0      0.00%     80.00% # Class of executed instruction
system.cpu1.op_class::SimdAesMix                    0      0.00%     80.00% # Class of executed instruction
system.cpu1.op_class::SimdSha1Hash                  0      0.00%     80.00% # Class of executed instruction
system.cpu1.op_class::SimdSha1Hash2                 0      0.00%     80.00% # Class of executed instruction
system.cpu1.op_class::SimdSha256Hash                0      0.00%     80.00% # Class of executed instruction
system.cpu1.op_class::SimdSha256Hash2               0      0.00%     80.00% # Class of executed instruction
system.cpu1.op_class::SimdShaSigma2                 0      0.00%     80.00% # Class of executed instruction
system.cpu1.op_class::SimdShaSigma3                 0      0.00%     80.00% # Class of executed instruction
system.cpu1.op_class::SimdPredAlu                   0      0.00%     80.00% # Class of executed instruction
system.cpu1.op_class::MemRead                       0      0.00%     80.00% # Class of executed instruction
system.cpu1.op_class::MemWrite                      1     20.00%    100.00% # Class of executed instruction
system.cpu1.op_class::FloatMemRead                  0      0.00%    100.00% # Class of executed instruction
system.cpu1.op_class::FloatMemWrite                 0      0.00%    100.00% # Class of executed instruction
system.cpu1.op_class::IprAccess                     0      0.00%    100.00% # Class of executed instruction
system.cpu1.op_class::InstPrefetch                  0      0.00%    100.00% # Class of executed instruction
system.cpu1.op_class::total                         5                       # Class of executed instruction
system.cpu1.toL2Bus.snoop_filter.hit_multi_requests           27                       # Number of requests hitting in the snoop filter with multiple (>1) holders of the requested data.
system.cpu1.toL2Bus.snoop_filter.hit_multi_snoops            0                       # Number of snoops hitting in the snoop filter with multiple (>1) holders of the requested data.
system.cpu1.toL2Bus.snoop_filter.hit_single_requests        30176                       # Number of requests hitting in the snoop filter with a single holder of the requested data.
system.cpu1.toL2Bus.snoop_filter.hit_single_snoops          327                       # Number of snoops hitting in the snoop filter with a single holder of the requested data.
system.cpu1.toL2Bus.snoop_filter.tot_requests        61149                       # Total number of requests made to the snoop filter.
system.cpu1.toL2Bus.snoop_filter.tot_snoops          327                       # Total number of snoops made to the snoop filter.
system.cpu1.toL3Bus.snoop_filter.hit_multi_requests            0                       # Number of requests hitting in the snoop filter with multiple (>1) holders of the requested data.
system.cpu1.toL3Bus.snoop_filter.hit_multi_snoops            0                       # Number of snoops hitting in the snoop filter with multiple (>1) holders of the requested data.
system.cpu1.toL3Bus.snoop_filter.hit_single_requests        12389                       # Number of requests hitting in the snoop filter with a single holder of the requested data.
system.cpu1.toL3Bus.snoop_filter.hit_single_snoops            0                       # Number of snoops hitting in the snoop filter with a single holder of the requested data.
system.cpu1.toL3Bus.snoop_filter.tot_requests        29197                       # Total number of requests made to the snoop filter.
system.cpu1.toL3Bus.snoop_filter.tot_snoops            0                       # Total number of snoops made to the snoop filter.
system.cpu1.workload.numSyscalls                 9201                       # Number of system calls
system.membus.snoop_filter.hit_multi_requests            0                       # Number of requests hitting in the snoop filter with multiple (>1) holders of the requested data.
system.membus.snoop_filter.hit_multi_snoops            0                       # Number of snoops hitting in the snoop filter with multiple (>1) holders of the requested data.
system.membus.snoop_filter.hit_single_requests            0                       # Number of requests hitting in the snoop filter with a single holder of the requested data.
system.membus.snoop_filter.hit_single_snoops            0                       # Number of snoops hitting in the snoop filter with a single holder of the requested data.
system.membus.snoop_filter.tot_requests         19304                       # Total number of requests made to the snoop filter.
system.membus.snoop_filter.tot_snoops               0                       # Total number of snoops made to the snoop filter.
system.switch_cpus0.Branches                   111680                       # Number of branches fetched
system.switch_cpus0.committedInsts            1000002                       # Number of instructions committed
system.switch_cpus0.committedOps              1538041                       # Number of ops (including micro ops) committed
system.switch_cpus0.dtb.rdAccesses             301209                       # TLB accesses on read requests
system.switch_cpus0.dtb.rdMisses                   14                       # TLB misses on read requests
system.switch_cpus0.dtb.wrAccesses             130194                       # TLB accesses on write requests
system.switch_cpus0.dtb.wrMisses                    3                       # TLB misses on write requests
system.switch_cpus0.idle_fraction            0.000000                       # Percentage of idle cycles
system.switch_cpus0.itb.rdAccesses                  0                       # TLB accesses on read requests
system.switch_cpus0.itb.rdMisses                    0                       # TLB misses on read requests
system.switch_cpus0.itb.wrAccesses            1290589                       # TLB accesses on write requests
system.switch_cpus0.itb.wrMisses                    4                       # TLB misses on write requests
system.switch_cpus0.not_idle_fraction        1.000000                       # Percentage of non-idle cycles
system.switch_cpus0.numCycles                 5349353                       # number of cpu cycles simulated
system.switch_cpus0.numWorkItemsCompleted            0                       # number of work items this cpu completed
system.switch_cpus0.numWorkItemsStarted             0                       # number of work items this cpu started
system.switch_cpus0.num_busy_cycles      5349352.137779                       # Number of busy cycles
system.switch_cpus0.num_cc_register_reads       875756                       # number of times the CC registers were read
system.switch_cpus0.num_cc_register_writes       883718                       # number of times the CC registers were written
system.switch_cpus0.num_conditional_control_insts        67470                       # number of instructions that are conditional controls
system.switch_cpus0.num_fp_alu_accesses           210                       # Number of float alu accesses
system.switch_cpus0.num_fp_insts                  210                       # number of float instructions
system.switch_cpus0.num_fp_register_reads          280                       # number of times the floating registers were read
system.switch_cpus0.num_fp_register_writes          175                       # number of times the floating registers were written
system.switch_cpus0.num_func_calls              41849                       # number of times a function call or return occured
system.switch_cpus0.num_idle_cycles          0.862221                       # Number of idle cycles
system.switch_cpus0.num_int_alu_accesses      1537936                       # Number of integer alu accesses
system.switch_cpus0.num_int_insts             1537936                       # number of integer instructions
system.switch_cpus0.num_int_register_reads      3513206                       # number of times the integer registers were read
system.switch_cpus0.num_int_register_writes      1295992                       # number of times the integer registers were written
system.switch_cpus0.num_load_insts             301209                       # Number of load instructions
system.switch_cpus0.num_mem_refs               431403                       # number of memory refs
system.switch_cpus0.num_store_insts            130194                       # Number of store instructions
system.switch_cpus0.num_vec_alu_accesses            0                       # Number of vector alu accesses
system.switch_cpus0.num_vec_insts                   0                       # number of vector instructions
system.switch_cpus0.num_vec_register_reads            0                       # number of times the vector registers were read
system.switch_cpus0.num_vec_register_writes            0                       # number of times the vector registers were written
system.switch_cpus0.op_class::No_OpClass            0      0.00%      0.00% # Class of executed instruction
system.switch_cpus0.op_class::IntAlu          1106498     71.94%     71.94% # Class of executed instruction
system.switch_cpus0.op_class::IntMult               0      0.00%     71.94% # Class of executed instruction
system.switch_cpus0.op_class::IntDiv                0      0.00%     71.94% # Class of executed instruction
system.switch_cpus0.op_class::FloatAdd              0      0.00%     71.94% # Class of executed instruction
system.switch_cpus0.op_class::FloatCmp              0      0.00%     71.94% # Class of executed instruction
system.switch_cpus0.op_class::FloatCvt              0      0.00%     71.94% # Class of executed instruction
system.switch_cpus0.op_class::FloatMult             0      0.00%     71.94% # Class of executed instruction
system.switch_cpus0.op_class::FloatMultAcc            0      0.00%     71.94% # Class of executed instruction
system.switch_cpus0.op_class::FloatDiv              0      0.00%     71.94% # Class of executed instruction
system.switch_cpus0.op_class::FloatMisc             0      0.00%     71.94% # Class of executed instruction
system.switch_cpus0.op_class::FloatSqrt             0      0.00%     71.94% # Class of executed instruction
system.switch_cpus0.op_class::SimdAdd               0      0.00%     71.94% # Class of executed instruction
system.switch_cpus0.op_class::SimdAddAcc            0      0.00%     71.94% # Class of executed instruction
system.switch_cpus0.op_class::SimdAlu               0      0.00%     71.94% # Class of executed instruction
system.switch_cpus0.op_class::SimdCmp               0      0.00%     71.94% # Class of executed instruction
system.switch_cpus0.op_class::SimdCvt               0      0.00%     71.94% # Class of executed instruction
system.switch_cpus0.op_class::SimdMisc             35      0.00%     71.94% # Class of executed instruction
system.switch_cpus0.op_class::SimdMult              0      0.00%     71.94% # Class of executed instruction
system.switch_cpus0.op_class::SimdMultAcc            0      0.00%     71.94% # Class of executed instruction
system.switch_cpus0.op_class::SimdShift             0      0.00%     71.94% # Class of executed instruction
system.switch_cpus0.op_class::SimdShiftAcc            0      0.00%     71.94% # Class of executed instruction
system.switch_cpus0.op_class::SimdDiv               0      0.00%     71.94% # Class of executed instruction
system.switch_cpus0.op_class::SimdSqrt              0      0.00%     71.94% # Class of executed instruction
system.switch_cpus0.op_class::SimdFloatAdd            0      0.00%     71.94% # Class of executed instruction
system.switch_cpus0.op_class::SimdFloatAlu            0      0.00%     71.94% # Class of executed instruction
system.switch_cpus0.op_class::SimdFloatCmp            0      0.00%     71.94% # Class of executed instruction
system.switch_cpus0.op_class::SimdFloatCvt           70      0.00%     71.95% # Class of executed instruction
system.switch_cpus0.op_class::SimdFloatDiv            0      0.00%     71.95% # Class of executed instruction
system.switch_cpus0.op_class::SimdFloatMisc            0      0.00%     71.95% # Class of executed instruction
system.switch_cpus0.op_class::SimdFloatMult           35      0.00%     71.95% # Class of executed instruction
system.switch_cpus0.op_class::SimdFloatMultAcc            0      0.00%     71.95% # Class of executed instruction
system.switch_cpus0.op_class::SimdFloatSqrt            0      0.00%     71.95% # Class of executed instruction
system.switch_cpus0.op_class::SimdReduceAdd            0      0.00%     71.95% # Class of executed instruction
system.switch_cpus0.op_class::SimdReduceAlu            0      0.00%     71.95% # Class of executed instruction
system.switch_cpus0.op_class::SimdReduceCmp            0      0.00%     71.95% # Class of executed instruction
system.switch_cpus0.op_class::SimdFloatReduceAdd            0      0.00%     71.95% # Class of executed instruction
system.switch_cpus0.op_class::SimdFloatReduceCmp            0      0.00%     71.95% # Class of executed instruction
system.switch_cpus0.op_class::SimdAes               0      0.00%     71.95% # Class of executed instruction
system.switch_cpus0.op_class::SimdAesMix            0      0.00%     71.95% # Class of executed instruction
system.switch_cpus0.op_class::SimdSha1Hash            0      0.00%     71.95% # Class of executed instruction
system.switch_cpus0.op_class::SimdSha1Hash2            0      0.00%     71.95% # Class of executed instruction
system.switch_cpus0.op_class::SimdSha256Hash            0      0.00%     71.95% # Class of executed instruction
system.switch_cpus0.op_class::SimdSha256Hash2            0      0.00%     71.95% # Class of executed instruction
system.switch_cpus0.op_class::SimdShaSigma2            0      0.00%     71.95% # Class of executed instruction
system.switch_cpus0.op_class::SimdShaSigma3            0      0.00%     71.95% # Class of executed instruction
system.switch_cpus0.op_class::SimdPredAlu            0      0.00%     71.95% # Class of executed instruction
system.switch_cpus0.op_class::MemRead          301139     19.58%     91.53% # Class of executed instruction
system.switch_cpus0.op_class::MemWrite         130194      8.46%    100.00% # Class of executed instruction
system.switch_cpus0.op_class::FloatMemRead           70      0.00%    100.00% # Class of executed instruction
system.switch_cpus0.op_class::FloatMemWrite            0      0.00%    100.00% # Class of executed instruction
system.switch_cpus0.op_class::IprAccess             0      0.00%    100.00% # Class of executed instruction
system.switch_cpus0.op_class::InstPrefetch            0      0.00%    100.00% # Class of executed instruction
system.switch_cpus0.op_class::total           1538041                       # Class of executed instruction
system.switch_cpus1.Branches                   208683                       # Number of branches fetched
system.switch_cpus1.committedInsts             928292                       # Number of instructions committed
system.switch_cpus1.committedOps              1878705                       # Number of ops (including micro ops) committed
system.switch_cpus1.dtb.rdAccesses             271069                       # TLB accesses on read requests
system.switch_cpus1.dtb.rdMisses                   40                       # TLB misses on read requests
system.switch_cpus1.dtb.wrAccesses             198011                       # TLB accesses on write requests
system.switch_cpus1.dtb.wrMisses                    3                       # TLB misses on write requests
system.switch_cpus1.idle_fraction            0.000000                       # Percentage of idle cycles
system.switch_cpus1.itb.rdAccesses                  0                       # TLB accesses on read requests
system.switch_cpus1.itb.rdMisses                    0                       # TLB misses on read requests
system.switch_cpus1.itb.wrAccesses            1176929                       # TLB accesses on write requests
system.switch_cpus1.itb.wrMisses                   27                       # TLB misses on write requests
system.switch_cpus1.not_idle_fraction        1.000000                       # Percentage of non-idle cycles
system.switch_cpus1.numCycles                 5349353                       # number of cpu cycles simulated
system.switch_cpus1.numWorkItemsCompleted            0                       # number of work items this cpu completed
system.switch_cpus1.numWorkItemsStarted             0                       # number of work items this cpu started
system.switch_cpus1.num_busy_cycles      5349352.137779                       # Number of busy cycles
system.switch_cpus1.num_cc_register_reads       777583                       # number of times the CC registers were read
system.switch_cpus1.num_cc_register_writes       417022                       # number of times the CC registers were written
system.switch_cpus1.num_conditional_control_insts        95072                       # number of instructions that are conditional controls
system.switch_cpus1.num_fp_alu_accesses         15279                       # Number of float alu accesses
system.switch_cpus1.num_fp_insts                15279                       # number of float instructions
system.switch_cpus1.num_fp_register_reads        25649                       # number of times the floating registers were read
system.switch_cpus1.num_fp_register_writes        13439                       # number of times the floating registers were written
system.switch_cpus1.num_func_calls              98444                       # number of times a function call or return occured
system.switch_cpus1.num_idle_cycles          0.862221                       # Number of idle cycles
system.switch_cpus1.num_int_alu_accesses      1859409                       # Number of integer alu accesses
system.switch_cpus1.num_int_insts             1859409                       # number of integer instructions
system.switch_cpus1.num_int_register_reads      3941858                       # number of times the integer registers were read
system.switch_cpus1.num_int_register_writes      1458524                       # number of times the integer registers were written
system.switch_cpus1.num_load_insts             271067                       # Number of load instructions
system.switch_cpus1.num_mem_refs               469076                       # number of memory refs
system.switch_cpus1.num_store_insts            198009                       # Number of store instructions
system.switch_cpus1.num_vec_alu_accesses            0                       # Number of vector alu accesses
system.switch_cpus1.num_vec_insts                   0                       # number of vector instructions
system.switch_cpus1.num_vec_register_reads            0                       # number of times the vector registers were read
system.switch_cpus1.num_vec_register_writes            0                       # number of times the vector registers were written
system.switch_cpus1.op_class::No_OpClass         6250      0.33%      0.33% # Class of executed instruction
system.switch_cpus1.op_class::IntAlu          1389379     73.95%     74.29% # Class of executed instruction
system.switch_cpus1.op_class::IntMult             867      0.05%     74.33% # Class of executed instruction
system.switch_cpus1.op_class::IntDiv             2135      0.11%     74.45% # Class of executed instruction
system.switch_cpus1.op_class::FloatAdd            609      0.03%     74.48% # Class of executed instruction
system.switch_cpus1.op_class::FloatCmp              0      0.00%     74.48% # Class of executed instruction
system.switch_cpus1.op_class::FloatCvt              0      0.00%     74.48% # Class of executed instruction
system.switch_cpus1.op_class::FloatMult             0      0.00%     74.48% # Class of executed instruction
system.switch_cpus1.op_class::FloatMultAcc            0      0.00%     74.48% # Class of executed instruction
system.switch_cpus1.op_class::FloatDiv              0      0.00%     74.48% # Class of executed instruction
system.switch_cpus1.op_class::FloatMisc             0      0.00%     74.48% # Class of executed instruction
system.switch_cpus1.op_class::FloatSqrt             0      0.00%     74.48% # Class of executed instruction
system.switch_cpus1.op_class::SimdAdd               0      0.00%     74.48% # Class of executed instruction
system.switch_cpus1.op_class::SimdAddAcc            0      0.00%     74.48% # Class of executed instruction
system.switch_cpus1.op_class::SimdAlu            2444      0.13%     74.61% # Class of executed instruction
system.switch_cpus1.op_class::SimdCmp               0      0.00%     74.61% # Class of executed instruction
system.switch_cpus1.op_class::SimdCvt            2450      0.13%     74.74% # Class of executed instruction
system.switch_cpus1.op_class::SimdMisc           5495      0.29%     75.03% # Class of executed instruction
system.switch_cpus1.op_class::SimdMult              0      0.00%     75.03% # Class of executed instruction
system.switch_cpus1.op_class::SimdMultAcc            0      0.00%     75.03% # Class of executed instruction
system.switch_cpus1.op_class::SimdShift             0      0.00%     75.03% # Class of executed instruction
system.switch_cpus1.op_class::SimdShiftAcc            0      0.00%     75.03% # Class of executed instruction
system.switch_cpus1.op_class::SimdDiv               0      0.00%     75.03% # Class of executed instruction
system.switch_cpus1.op_class::SimdSqrt              0      0.00%     75.03% # Class of executed instruction
system.switch_cpus1.op_class::SimdFloatAdd            0      0.00%     75.03% # Class of executed instruction
system.switch_cpus1.op_class::SimdFloatAlu            0      0.00%     75.03% # Class of executed instruction
system.switch_cpus1.op_class::SimdFloatCmp            0      0.00%     75.03% # Class of executed instruction
system.switch_cpus1.op_class::SimdFloatCvt            0      0.00%     75.03% # Class of executed instruction
system.switch_cpus1.op_class::SimdFloatDiv            0      0.00%     75.03% # Class of executed instruction
system.switch_cpus1.op_class::SimdFloatMisc            0      0.00%     75.03% # Class of executed instruction
system.switch_cpus1.op_class::SimdFloatMult            0      0.00%     75.03% # Class of executed instruction
system.switch_cpus1.op_class::SimdFloatMultAcc            0      0.00%     75.03% # Class of executed instruction
system.switch_cpus1.op_class::SimdFloatSqrt            0      0.00%     75.03% # Class of executed instruction
system.switch_cpus1.op_class::SimdReduceAdd            0      0.00%     75.03% # Class of executed instruction
system.switch_cpus1.op_class::SimdReduceAlu            0      0.00%     75.03% # Class of executed instruction
system.switch_cpus1.op_class::SimdReduceCmp            0      0.00%     75.03% # Class of executed instruction
system.switch_cpus1.op_class::SimdFloatReduceAdd            0      0.00%     75.03% # Class of executed instruction
system.switch_cpus1.op_class::SimdFloatReduceCmp            0      0.00%     75.03% # Class of executed instruction
system.switch_cpus1.op_class::SimdAes               0      0.00%     75.03% # Class of executed instruction
system.switch_cpus1.op_class::SimdAesMix            0      0.00%     75.03% # Class of executed instruction
system.switch_cpus1.op_class::SimdSha1Hash            0      0.00%     75.03% # Class of executed instruction
system.switch_cpus1.op_class::SimdSha1Hash2            0      0.00%     75.03% # Class of executed instruction
system.switch_cpus1.op_class::SimdSha256Hash            0      0.00%     75.03% # Class of executed instruction
system.switch_cpus1.op_class::SimdSha256Hash2            0      0.00%     75.03% # Class of executed instruction
system.switch_cpus1.op_class::SimdShaSigma2            0      0.00%     75.03% # Class of executed instruction
system.switch_cpus1.op_class::SimdShaSigma3            0      0.00%     75.03% # Class of executed instruction
system.switch_cpus1.op_class::SimdPredAlu            0      0.00%     75.03% # Class of executed instruction
system.switch_cpus1.op_class::MemRead          269221     14.33%     89.36% # Class of executed instruction
system.switch_cpus1.op_class::MemWrite         197401     10.51%     99.87% # Class of executed instruction
system.switch_cpus1.op_class::FloatMemRead         1846      0.10%     99.97% # Class of executed instruction
system.switch_cpus1.op_class::FloatMemWrite          608      0.03%    100.00% # Class of executed instruction
system.switch_cpus1.op_class::IprAccess             0      0.00%    100.00% # Class of executed instruction
system.switch_cpus1.op_class::InstPrefetch            0      0.00%    100.00% # Class of executed instruction
system.switch_cpus1.op_class::total           1878705                       # Class of executed instruction
system.switch_cpus_10.branchPred.BTBCorrect            0                       # Number of correct BTB predictions (this stat may not work properly.
system.switch_cpus_10.branchPred.BTBHitPct     0.000000                       # BTB Hit Percentage
system.switch_cpus_10.branchPred.BTBHits            0                       # Number of BTB hits
system.switch_cpus_10.branchPred.BTBLookups      5243784                       # Number of BTB lookups
system.switch_cpus_10.branchPred.RASInCorrect            0                       # Number of incorrect RAS predictions.
system.switch_cpus_10.branchPred.condIncorrect       240568                       # Number of conditional branches incorrect
system.switch_cpus_10.branchPred.condPredicted      5343756                       # Number of conditional branches predicted
system.switch_cpus_10.branchPred.indirectHits      3418520                       # Number of indirect target hits.
system.switch_cpus_10.branchPred.indirectLookups      5243784                       # Number of indirect predictor lookups.
system.switch_cpus_10.branchPred.indirectMisses      1825264                       # Number of indirect misses.
system.switch_cpus_10.branchPred.lookups      7717790                       # Number of BP lookups
system.switch_cpus_10.branchPred.usedRAS      1102164                       # Number of times the RAS was used to get a target.
system.switch_cpus_10.branchPredindirectMispredicted       141108                       # Number of mispredicted indirect branches.
system.switch_cpus_10.cc_regfile_reads       46587500                       # number of cc regfile reads
system.switch_cpus_10.cc_regfile_writes      45538173                       # number of cc regfile writes
system.switch_cpus_10.commit.amos                   0                       # Number of atomic instructions committed
system.switch_cpus_10.commit.branchMispredicts       240568                       # The number of times a branch was mispredicted
system.switch_cpus_10.commit.branches         5713672                       # Number of branches committed
system.switch_cpus_10.commit.bw_lim_events      3015795                       # number cycles where commit BW limit reached
system.switch_cpus_10.commit.commitSquashedInsts      9482866                       # The number of squashed insts skipped by commit
system.switch_cpus_10.commit.committedInsts     50000000                       # Number of instructions committed
system.switch_cpus_10.commit.committedOps     77212095                       # Number of ops (including micro ops) committed
system.switch_cpus_10.commit.committed_per_cycle::samples     30484940                       # Number of insts commited each cycle
system.switch_cpus_10.commit.committed_per_cycle::mean     2.532795                       # Number of insts commited each cycle
system.switch_cpus_10.commit.committed_per_cycle::stdev     2.378327                       # Number of insts commited each cycle
system.switch_cpus_10.commit.committed_per_cycle::underflows            0      0.00%      0.00% # Number of insts commited each cycle
system.switch_cpus_10.commit.committed_per_cycle::0      4714107     15.46%     15.46% # Number of insts commited each cycle
system.switch_cpus_10.commit.committed_per_cycle::1      8431084     27.66%     43.12% # Number of insts commited each cycle
system.switch_cpus_10.commit.committed_per_cycle::2      6749570     22.14%     65.26% # Number of insts commited each cycle
system.switch_cpus_10.commit.committed_per_cycle::3      3473848     11.40%     76.66% # Number of insts commited each cycle
system.switch_cpus_10.commit.committed_per_cycle::4      1389904      4.56%     81.22% # Number of insts commited each cycle
system.switch_cpus_10.commit.committed_per_cycle::5      1317639      4.32%     85.54% # Number of insts commited each cycle
system.switch_cpus_10.commit.committed_per_cycle::6      1164795      3.82%     89.36% # Number of insts commited each cycle
system.switch_cpus_10.commit.committed_per_cycle::7       228198      0.75%     90.11% # Number of insts commited each cycle
system.switch_cpus_10.commit.committed_per_cycle::8      3015795      9.89%    100.00% # Number of insts commited each cycle
system.switch_cpus_10.commit.committed_per_cycle::overflows            0      0.00%    100.00% # Number of insts commited each cycle
system.switch_cpus_10.commit.committed_per_cycle::min_value            0                       # Number of insts commited each cycle
system.switch_cpus_10.commit.committed_per_cycle::max_value            8                       # Number of insts commited each cycle
system.switch_cpus_10.commit.committed_per_cycle::total     30484940                       # Number of insts commited each cycle
system.switch_cpus_10.commit.fp_insts            4608                       # Number of committed floating point instructions.
system.switch_cpus_10.commit.function_calls      1045512                       # Number of function calls committed.
system.switch_cpus_10.commit.int_insts       77209791                       # Number of committed integer instructions.
system.switch_cpus_10.commit.loads           15182132                       # Number of loads committed
system.switch_cpus_10.commit.membars                0                       # Number of memory barriers committed
system.switch_cpus_10.commit.op_class_0::No_OpClass            0      0.00%      0.00% # Class of committed instruction
system.switch_cpus_10.commit.op_class_0::IntAlu     55521483     71.91%     71.91% # Class of committed instruction
system.switch_cpus_10.commit.op_class_0::IntMult            0      0.00%     71.91% # Class of committed instruction
system.switch_cpus_10.commit.op_class_0::IntDiv            0      0.00%     71.91% # Class of committed instruction
system.switch_cpus_10.commit.op_class_0::FloatAdd            0      0.00%     71.91% # Class of committed instruction
system.switch_cpus_10.commit.op_class_0::FloatCmp            0      0.00%     71.91% # Class of committed instruction
system.switch_cpus_10.commit.op_class_0::FloatCvt            0      0.00%     71.91% # Class of committed instruction
system.switch_cpus_10.commit.op_class_0::FloatMult            0      0.00%     71.91% # Class of committed instruction
system.switch_cpus_10.commit.op_class_0::FloatMultAcc            0      0.00%     71.91% # Class of committed instruction
system.switch_cpus_10.commit.op_class_0::FloatDiv            0      0.00%     71.91% # Class of committed instruction
system.switch_cpus_10.commit.op_class_0::FloatMisc            0      0.00%     71.91% # Class of committed instruction
system.switch_cpus_10.commit.op_class_0::FloatSqrt            0      0.00%     71.91% # Class of committed instruction
system.switch_cpus_10.commit.op_class_0::SimdAdd            0      0.00%     71.91% # Class of committed instruction
system.switch_cpus_10.commit.op_class_0::SimdAddAcc            0      0.00%     71.91% # Class of committed instruction
system.switch_cpus_10.commit.op_class_0::SimdAlu            0      0.00%     71.91% # Class of committed instruction
system.switch_cpus_10.commit.op_class_0::SimdCmp            0      0.00%     71.91% # Class of committed instruction
system.switch_cpus_10.commit.op_class_0::SimdCvt            0      0.00%     71.91% # Class of committed instruction
system.switch_cpus_10.commit.op_class_0::SimdMisc          768      0.00%     71.91% # Class of committed instruction
system.switch_cpus_10.commit.op_class_0::SimdMult            0      0.00%     71.91% # Class of committed instruction
system.switch_cpus_10.commit.op_class_0::SimdMultAcc            0      0.00%     71.91% # Class of committed instruction
system.switch_cpus_10.commit.op_class_0::SimdShift            0      0.00%     71.91% # Class of committed instruction
system.switch_cpus_10.commit.op_class_0::SimdShiftAcc            0      0.00%     71.91% # Class of committed instruction
system.switch_cpus_10.commit.op_class_0::SimdDiv            0      0.00%     71.91% # Class of committed instruction
system.switch_cpus_10.commit.op_class_0::SimdSqrt            0      0.00%     71.91% # Class of committed instruction
system.switch_cpus_10.commit.op_class_0::SimdFloatAdd            0      0.00%     71.91% # Class of committed instruction
system.switch_cpus_10.commit.op_class_0::SimdFloatAlu            0      0.00%     71.91% # Class of committed instruction
system.switch_cpus_10.commit.op_class_0::SimdFloatCmp            0      0.00%     71.91% # Class of committed instruction
system.switch_cpus_10.commit.op_class_0::SimdFloatCvt         1536      0.00%     71.91% # Class of committed instruction
system.switch_cpus_10.commit.op_class_0::SimdFloatDiv            0      0.00%     71.91% # Class of committed instruction
system.switch_cpus_10.commit.op_class_0::SimdFloatMisc            0      0.00%     71.91% # Class of committed instruction
system.switch_cpus_10.commit.op_class_0::SimdFloatMult          768      0.00%     71.91% # Class of committed instruction
system.switch_cpus_10.commit.op_class_0::SimdFloatMultAcc            0      0.00%     71.91% # Class of committed instruction
system.switch_cpus_10.commit.op_class_0::SimdFloatSqrt            0      0.00%     71.91% # Class of committed instruction
system.switch_cpus_10.commit.op_class_0::SimdReduceAdd            0      0.00%     71.91% # Class of committed instruction
system.switch_cpus_10.commit.op_class_0::SimdReduceAlu            0      0.00%     71.91% # Class of committed instruction
system.switch_cpus_10.commit.op_class_0::SimdReduceCmp            0      0.00%     71.91% # Class of committed instruction
system.switch_cpus_10.commit.op_class_0::SimdFloatReduceAdd            0      0.00%     71.91% # Class of committed instruction
system.switch_cpus_10.commit.op_class_0::SimdFloatReduceCmp            0      0.00%     71.91% # Class of committed instruction
system.switch_cpus_10.commit.op_class_0::SimdAes            0      0.00%     71.91% # Class of committed instruction
system.switch_cpus_10.commit.op_class_0::SimdAesMix            0      0.00%     71.91% # Class of committed instruction
system.switch_cpus_10.commit.op_class_0::SimdSha1Hash            0      0.00%     71.91% # Class of committed instruction
system.switch_cpus_10.commit.op_class_0::SimdSha1Hash2            0      0.00%     71.91% # Class of committed instruction
system.switch_cpus_10.commit.op_class_0::SimdSha256Hash            0      0.00%     71.91% # Class of committed instruction
system.switch_cpus_10.commit.op_class_0::SimdSha256Hash2            0      0.00%     71.91% # Class of committed instruction
system.switch_cpus_10.commit.op_class_0::SimdShaSigma2            0      0.00%     71.91% # Class of committed instruction
system.switch_cpus_10.commit.op_class_0::SimdShaSigma3            0      0.00%     71.91% # Class of committed instruction
system.switch_cpus_10.commit.op_class_0::SimdPredAlu            0      0.00%     71.91% # Class of committed instruction
system.switch_cpus_10.commit.op_class_0::MemRead     15180596     19.66%     91.57% # Class of committed instruction
system.switch_cpus_10.commit.op_class_0::MemWrite      6505408      8.43%    100.00% # Class of committed instruction
system.switch_cpus_10.commit.op_class_0::FloatMemRead         1536      0.00%    100.00% # Class of committed instruction
system.switch_cpus_10.commit.op_class_0::FloatMemWrite            0      0.00%    100.00% # Class of committed instruction
system.switch_cpus_10.commit.op_class_0::IprAccess            0      0.00%    100.00% # Class of committed instruction
system.switch_cpus_10.commit.op_class_0::InstPrefetch            0      0.00%    100.00% # Class of committed instruction
system.switch_cpus_10.commit.op_class_0::total     77212095                       # Class of committed instruction
system.switch_cpus_10.commit.refs            21687540                       # Number of memory references committed
system.switch_cpus_10.commit.swp_count              0                       # Number of s/w prefetches committed
system.switch_cpus_10.commit.vec_insts              0                       # Number of committed Vector instructions.
system.switch_cpus_10.committedInsts         50000000                       # Number of Instructions Simulated
system.switch_cpus_10.committedOps           77212095                       # Number of Ops (including micro ops) Simulated
system.switch_cpus_10.cpi                    0.637511                       # CPI: Cycles Per Instruction
system.switch_cpus_10.cpi_total              0.637511                       # CPI: Total CPI of All Threads
system.switch_cpus_10.decode.BlockedCycles     10351485                       # Number of cycles decode is blocked
system.switch_cpus_10.decode.DecodedInsts     89247712                       # Number of instructions handled by decode
system.switch_cpus_10.decode.IdleCycles       8192937                       # Number of cycles decode is idle
system.switch_cpus_10.decode.RunCycles       10289217                       # Number of cycles decode is running
system.switch_cpus_10.decode.SquashCycles       240648                       # Number of cycles decode is squashing
system.switch_cpus_10.decode.UnblockCycles      2800786                       # Number of cycles decode is unblocking
system.switch_cpus_10.dtb.rdAccesses         16190902                       # TLB accesses on read requests
system.switch_cpus_10.dtb.rdMisses                 45                       # TLB misses on read requests
system.switch_cpus_10.dtb.wrAccesses          6861838                       # TLB accesses on write requests
system.switch_cpus_10.dtb.wrMisses                 32                       # TLB misses on write requests
system.switch_cpus_10.fetch.Branches          7717790                       # Number of branches that fetch encountered
system.switch_cpus_10.fetch.CacheLines        5450510                       # Number of cache lines fetched
system.switch_cpus_10.fetch.Cycles           20662976                       # Number of cycles fetch has run and was not squashing or blocked
system.switch_cpus_10.fetch.IcacheSquashes        95823                       # Number of outstanding Icache misses that were squashed
system.switch_cpus_10.fetch.Insts            57059467                       # Number of instructions fetch has processed
system.switch_cpus_10.fetch.SquashCycles       481296                       # Number of cycles fetch has spent squashing
system.switch_cpus_10.fetch.branchRate       0.242122                       # Number of branch fetches per cycle
system.switch_cpus_10.fetch.icacheStallCycles     10971454                       # Number of cycles fetch is stalled on an Icache miss
system.switch_cpus_10.fetch.predictedBranches      4520684                       # Number of branches that fetch has predicted taken
system.switch_cpus_10.fetch.rate             1.790069                       # Number of inst fetches per cycle
system.switch_cpus_10.fetch.rateDist::samples     31875078                       # Number of instructions fetched each cycle (Total)
system.switch_cpus_10.fetch.rateDist::mean     2.839821                       # Number of instructions fetched each cycle (Total)
system.switch_cpus_10.fetch.rateDist::stdev     3.459499                       # Number of instructions fetched each cycle (Total)
system.switch_cpus_10.fetch.rateDist::underflows            0      0.00%      0.00% # Number of instructions fetched each cycle (Total)
system.switch_cpus_10.fetch.rateDist::0      16817959     52.76%     52.76% # Number of instructions fetched each cycle (Total)
system.switch_cpus_10.fetch.rateDist::1        806194      2.53%     55.29% # Number of instructions fetched each cycle (Total)
system.switch_cpus_10.fetch.rateDist::2       1939277      6.08%     61.38% # Number of instructions fetched each cycle (Total)
system.switch_cpus_10.fetch.rateDist::3        783071      2.46%     63.83% # Number of instructions fetched each cycle (Total)
system.switch_cpus_10.fetch.rateDist::4        398828      1.25%     65.08% # Number of instructions fetched each cycle (Total)
system.switch_cpus_10.fetch.rateDist::5       1766737      5.54%     70.63% # Number of instructions fetched each cycle (Total)
system.switch_cpus_10.fetch.rateDist::6        432025      1.36%     71.98% # Number of instructions fetched each cycle (Total)
system.switch_cpus_10.fetch.rateDist::7        983475      3.09%     75.07% # Number of instructions fetched each cycle (Total)
system.switch_cpus_10.fetch.rateDist::8       7947512     24.93%    100.00% # Number of instructions fetched each cycle (Total)
system.switch_cpus_10.fetch.rateDist::overflows            0      0.00%    100.00% # Number of instructions fetched each cycle (Total)
system.switch_cpus_10.fetch.rateDist::min_value            0                       # Number of instructions fetched each cycle (Total)
system.switch_cpus_10.fetch.rateDist::max_value            8                       # Number of instructions fetched each cycle (Total)
system.switch_cpus_10.fetch.rateDist::total     31875078                       # Number of instructions fetched each cycle (Total)
system.switch_cpus_10.fp_regfile_reads          14859                       # number of floating regfile reads
system.switch_cpus_10.fp_regfile_writes         11626                       # number of floating regfile writes
system.switch_cpus_10.idleCycles                  482                       # Total number of cycles that the CPU has spent unscheduled due to idling
system.switch_cpus_10.iew.branchMispredicts       337337                       # Number of branch mispredicts detected at execute
system.switch_cpus_10.iew.exec_branches       6265555                       # Number of branches executed
system.switch_cpus_10.iew.exec_nop                  0                       # number of nop insts executed
system.switch_cpus_10.iew.exec_rate          2.614002                       # Inst execution rate
system.switch_cpus_10.iew.exec_refs          23052740                       # number of memory reference insts executed
system.switch_cpus_10.iew.exec_stores         6861838                       # Number of stores executed
system.switch_cpus_10.iew.exec_swp                  0                       # number of swp insts executed
system.switch_cpus_10.iew.iewBlockCycles      1150039                       # Number of cycles IEW is blocking
system.switch_cpus_10.iew.iewDispLoadInsts     16733783                       # Number of dispatched load instructions
system.switch_cpus_10.iew.iewDispNonSpecInsts            0                       # Number of dispatched non-speculative instructions
system.switch_cpus_10.iew.iewDispSquashedInsts         5024                       # Number of squashed instructions skipped by dispatch
system.switch_cpus_10.iew.iewDispStoreInsts      7110771                       # Number of dispatched store instructions
system.switch_cpus_10.iew.iewDispatchedInsts     86694972                       # Number of instructions dispatched to IQ
system.switch_cpus_10.iew.iewExecLoadInsts     16190902                       # Number of load instructions executed
system.switch_cpus_10.iew.iewExecSquashedInsts       512475                       # Number of squashed instructions skipped in execute
system.switch_cpus_10.iew.iewExecutedInsts     83322785                       # Number of executed instructions
system.switch_cpus_10.iew.iewIQFullEvents           19                       # Number of times the IQ has become full, causing a stall
system.switch_cpus_10.iew.iewIdleCycles             0                       # Number of cycles IEW is idle
system.switch_cpus_10.iew.iewLSQFullEvents       233073                       # Number of times the LSQ has become full, causing a stall
system.switch_cpus_10.iew.iewSquashCycles       240648                       # Number of cycles IEW is squashing
system.switch_cpus_10.iew.iewUnblockCycles       233101                       # Number of cycles IEW is unblocking
system.switch_cpus_10.iew.lsq.thread0.blockedLoads            0                       # Number of blocked loads due to partial load-store forwarding
system.switch_cpus_10.iew.lsq.thread0.cacheBlocked            0                       # Number of times an access to memory failed due to the cache being blocked
system.switch_cpus_10.iew.lsq.thread0.forwLoads      6472213                       # Number of loads that had data forwarded from stores
system.switch_cpus_10.iew.lsq.thread0.ignoredResponses         3397                       # Number of memory responses ignored because the instruction is squashed
system.switch_cpus_10.iew.lsq.thread0.invAddrLoads            0                       # Number of loads ignored due to an invalid address
system.switch_cpus_10.iew.lsq.thread0.invAddrSwpfs            0                       # Number of software prefetches ignored due to an invalid address
system.switch_cpus_10.iew.lsq.thread0.memOrderViolation           80                       # Number of memory ordering violations
system.switch_cpus_10.iew.lsq.thread0.rescheduledLoads            0                       # Number of loads that were rescheduled
system.switch_cpus_10.iew.lsq.thread0.squashedLoads      1551649                       # Number of loads squashed
system.switch_cpus_10.iew.lsq.thread0.squashedStores       605362                       # Number of stores squashed
system.switch_cpus_10.iew.memOrderViolationEvents           80                       # Number of memory order violations
system.switch_cpus_10.iew.predictedNotTakenIncorrect       264939                       # Number of branches that were predicted not taken incorrectly
system.switch_cpus_10.iew.predictedTakenIncorrect        72398                       # Number of branches that were predicted taken incorrectly
system.switch_cpus_10.iew.wb_consumers      114878721                       # num instructions consuming a value
system.switch_cpus_10.iew.wb_count           82947489                       # cumulative count of insts written-back
system.switch_cpus_10.iew.wb_fanout          0.543114                       # average fanout of values written-back
system.switch_cpus_10.iew.wb_producers       62392191                       # num instructions producing a value
system.switch_cpus_10.iew.wb_rate            2.602228                       # insts written-back per cycle
system.switch_cpus_10.iew.wb_sent            83005252                       # cumulative count of insts sent to commit
system.switch_cpus_10.int_regfile_reads     150277912                       # number of integer regfile reads
system.switch_cpus_10.int_regfile_writes     69843467                       # number of integer regfile writes
system.switch_cpus_10.ipc                    1.568600                       # IPC: Instructions Per Cycle
system.switch_cpus_10.ipc_total              1.568600                       # IPC: Total IPC of All Threads
system.switch_cpus_10.iq.FU_type_0::No_OpClass        23315      0.03%      0.03% # Type of FU issued
system.switch_cpus_10.iq.FU_type_0::IntAlu     60593568     72.28%     72.30% # Type of FU issued
system.switch_cpus_10.iq.FU_type_0::IntMult            0      0.00%     72.30% # Type of FU issued
system.switch_cpus_10.iq.FU_type_0::IntDiv            0      0.00%     72.30% # Type of FU issued
system.switch_cpus_10.iq.FU_type_0::FloatAdd            0      0.00%     72.30% # Type of FU issued
system.switch_cpus_10.iq.FU_type_0::FloatCmp            0      0.00%     72.30% # Type of FU issued
system.switch_cpus_10.iq.FU_type_0::FloatCvt            0      0.00%     72.30% # Type of FU issued
system.switch_cpus_10.iq.FU_type_0::FloatMult            0      0.00%     72.30% # Type of FU issued
system.switch_cpus_10.iq.FU_type_0::FloatMultAcc            0      0.00%     72.30% # Type of FU issued
system.switch_cpus_10.iq.FU_type_0::FloatDiv            0      0.00%     72.30% # Type of FU issued
system.switch_cpus_10.iq.FU_type_0::FloatMisc            0      0.00%     72.30% # Type of FU issued
system.switch_cpus_10.iq.FU_type_0::FloatSqrt            0      0.00%     72.30% # Type of FU issued
system.switch_cpus_10.iq.FU_type_0::SimdAdd            0      0.00%     72.30% # Type of FU issued
system.switch_cpus_10.iq.FU_type_0::SimdAddAcc            0      0.00%     72.30% # Type of FU issued
system.switch_cpus_10.iq.FU_type_0::SimdAlu            0      0.00%     72.30% # Type of FU issued
system.switch_cpus_10.iq.FU_type_0::SimdCmp            0      0.00%     72.30% # Type of FU issued
system.switch_cpus_10.iq.FU_type_0::SimdCvt            0      0.00%     72.30% # Type of FU issued
system.switch_cpus_10.iq.FU_type_0::SimdMisc          866      0.00%     72.31% # Type of FU issued
system.switch_cpus_10.iq.FU_type_0::SimdMult            0      0.00%     72.31% # Type of FU issued
system.switch_cpus_10.iq.FU_type_0::SimdMultAcc            0      0.00%     72.31% # Type of FU issued
system.switch_cpus_10.iq.FU_type_0::SimdShift            0      0.00%     72.31% # Type of FU issued
system.switch_cpus_10.iq.FU_type_0::SimdShiftAcc            0      0.00%     72.31% # Type of FU issued
system.switch_cpus_10.iq.FU_type_0::SimdDiv            0      0.00%     72.31% # Type of FU issued
system.switch_cpus_10.iq.FU_type_0::SimdSqrt            0      0.00%     72.31% # Type of FU issued
system.switch_cpus_10.iq.FU_type_0::SimdFloatAdd            0      0.00%     72.31% # Type of FU issued
system.switch_cpus_10.iq.FU_type_0::SimdFloatAlu            0      0.00%     72.31% # Type of FU issued
system.switch_cpus_10.iq.FU_type_0::SimdFloatCmp            0      0.00%     72.31% # Type of FU issued
system.switch_cpus_10.iq.FU_type_0::SimdFloatCvt         3896      0.00%     72.31% # Type of FU issued
system.switch_cpus_10.iq.FU_type_0::SimdFloatDiv            0      0.00%     72.31% # Type of FU issued
system.switch_cpus_10.iq.FU_type_0::SimdFloatMisc            0      0.00%     72.31% # Type of FU issued
system.switch_cpus_10.iq.FU_type_0::SimdFloatMult         2067      0.00%     72.31% # Type of FU issued
system.switch_cpus_10.iq.FU_type_0::SimdFloatMultAcc            0      0.00%     72.31% # Type of FU issued
system.switch_cpus_10.iq.FU_type_0::SimdFloatSqrt            0      0.00%     72.31% # Type of FU issued
system.switch_cpus_10.iq.FU_type_0::SimdReduceAdd            0      0.00%     72.31% # Type of FU issued
system.switch_cpus_10.iq.FU_type_0::SimdReduceAlu            0      0.00%     72.31% # Type of FU issued
system.switch_cpus_10.iq.FU_type_0::SimdReduceCmp            0      0.00%     72.31% # Type of FU issued
system.switch_cpus_10.iq.FU_type_0::SimdFloatReduceAdd            0      0.00%     72.31% # Type of FU issued
system.switch_cpus_10.iq.FU_type_0::SimdFloatReduceCmp            0      0.00%     72.31% # Type of FU issued
system.switch_cpus_10.iq.FU_type_0::SimdAes            0      0.00%     72.31% # Type of FU issued
system.switch_cpus_10.iq.FU_type_0::SimdAesMix            0      0.00%     72.31% # Type of FU issued
system.switch_cpus_10.iq.FU_type_0::SimdSha1Hash            0      0.00%     72.31% # Type of FU issued
system.switch_cpus_10.iq.FU_type_0::SimdSha1Hash2            0      0.00%     72.31% # Type of FU issued
system.switch_cpus_10.iq.FU_type_0::SimdSha256Hash            0      0.00%     72.31% # Type of FU issued
system.switch_cpus_10.iq.FU_type_0::SimdSha256Hash2            0      0.00%     72.31% # Type of FU issued
system.switch_cpus_10.iq.FU_type_0::SimdShaSigma2            0      0.00%     72.31% # Type of FU issued
system.switch_cpus_10.iq.FU_type_0::SimdShaSigma3            0      0.00%     72.31% # Type of FU issued
system.switch_cpus_10.iq.FU_type_0::SimdPredAlu            0      0.00%     72.31% # Type of FU issued
system.switch_cpus_10.iq.FU_type_0::MemRead     16276745     19.42%     91.73% # Type of FU issued
system.switch_cpus_10.iq.FU_type_0::MemWrite      6927147      8.26%     99.99% # Type of FU issued
system.switch_cpus_10.iq.FU_type_0::FloatMemRead         7659      0.01%    100.00% # Type of FU issued
system.switch_cpus_10.iq.FU_type_0::FloatMemWrite            0      0.00%    100.00% # Type of FU issued
system.switch_cpus_10.iq.FU_type_0::IprAccess            0      0.00%    100.00% # Type of FU issued
system.switch_cpus_10.iq.FU_type_0::InstPrefetch            0      0.00%    100.00% # Type of FU issued
system.switch_cpus_10.iq.FU_type_0::total     83835263                       # Type of FU issued
system.switch_cpus_10.iq.fp_alu_accesses        14491                       # Number of floating point alu accesses
system.switch_cpus_10.iq.fp_inst_queue_reads        28982                       # Number of floating instruction queue reads
system.switch_cpus_10.iq.fp_inst_queue_wakeup_accesses        11564                       # Number of floating instruction queue wakeup accesses
system.switch_cpus_10.iq.fp_inst_queue_writes        43080                       # Number of floating instruction queue writes
system.switch_cpus_10.iq.fu_busy_cnt          1162463                       # FU busy when requested
system.switch_cpus_10.iq.fu_busy_rate        0.013866                       # FU busy rate (busy events/executed inst)
system.switch_cpus_10.iq.fu_full::No_OpClass            0      0.00%      0.00% # attempts to use FU when none available
system.switch_cpus_10.iq.fu_full::IntAlu       546579     47.02%     47.02% # attempts to use FU when none available
system.switch_cpus_10.iq.fu_full::IntMult            0      0.00%     47.02% # attempts to use FU when none available
system.switch_cpus_10.iq.fu_full::IntDiv            0      0.00%     47.02% # attempts to use FU when none available
system.switch_cpus_10.iq.fu_full::FloatAdd            0      0.00%     47.02% # attempts to use FU when none available
system.switch_cpus_10.iq.fu_full::FloatCmp            0      0.00%     47.02% # attempts to use FU when none available
system.switch_cpus_10.iq.fu_full::FloatCvt            0      0.00%     47.02% # attempts to use FU when none available
system.switch_cpus_10.iq.fu_full::FloatMult            0      0.00%     47.02% # attempts to use FU when none available
system.switch_cpus_10.iq.fu_full::FloatMultAcc            0      0.00%     47.02% # attempts to use FU when none available
system.switch_cpus_10.iq.fu_full::FloatDiv            0      0.00%     47.02% # attempts to use FU when none available
system.switch_cpus_10.iq.fu_full::FloatMisc            0      0.00%     47.02% # attempts to use FU when none available
system.switch_cpus_10.iq.fu_full::FloatSqrt            0      0.00%     47.02% # attempts to use FU when none available
system.switch_cpus_10.iq.fu_full::SimdAdd            0      0.00%     47.02% # attempts to use FU when none available
system.switch_cpus_10.iq.fu_full::SimdAddAcc            0      0.00%     47.02% # attempts to use FU when none available
system.switch_cpus_10.iq.fu_full::SimdAlu            0      0.00%     47.02% # attempts to use FU when none available
system.switch_cpus_10.iq.fu_full::SimdCmp            0      0.00%     47.02% # attempts to use FU when none available
system.switch_cpus_10.iq.fu_full::SimdCvt            0      0.00%     47.02% # attempts to use FU when none available
system.switch_cpus_10.iq.fu_full::SimdMisc            0      0.00%     47.02% # attempts to use FU when none available
system.switch_cpus_10.iq.fu_full::SimdMult            0      0.00%     47.02% # attempts to use FU when none available
system.switch_cpus_10.iq.fu_full::SimdMultAcc            0      0.00%     47.02% # attempts to use FU when none available
system.switch_cpus_10.iq.fu_full::SimdShift            0      0.00%     47.02% # attempts to use FU when none available
system.switch_cpus_10.iq.fu_full::SimdShiftAcc            0      0.00%     47.02% # attempts to use FU when none available
system.switch_cpus_10.iq.fu_full::SimdDiv            0      0.00%     47.02% # attempts to use FU when none available
system.switch_cpus_10.iq.fu_full::SimdSqrt            0      0.00%     47.02% # attempts to use FU when none available
system.switch_cpus_10.iq.fu_full::SimdFloatAdd            0      0.00%     47.02% # attempts to use FU when none available
system.switch_cpus_10.iq.fu_full::SimdFloatAlu            0      0.00%     47.02% # attempts to use FU when none available
system.switch_cpus_10.iq.fu_full::SimdFloatCmp            0      0.00%     47.02% # attempts to use FU when none available
system.switch_cpus_10.iq.fu_full::SimdFloatCvt            0      0.00%     47.02% # attempts to use FU when none available
system.switch_cpus_10.iq.fu_full::SimdFloatDiv            0      0.00%     47.02% # attempts to use FU when none available
system.switch_cpus_10.iq.fu_full::SimdFloatMisc            0      0.00%     47.02% # attempts to use FU when none available
system.switch_cpus_10.iq.fu_full::SimdFloatMult            0      0.00%     47.02% # attempts to use FU when none available
system.switch_cpus_10.iq.fu_full::SimdFloatMultAcc            0      0.00%     47.02% # attempts to use FU when none available
system.switch_cpus_10.iq.fu_full::SimdFloatSqrt            0      0.00%     47.02% # attempts to use FU when none available
system.switch_cpus_10.iq.fu_full::SimdReduceAdd            0      0.00%     47.02% # attempts to use FU when none available
system.switch_cpus_10.iq.fu_full::SimdReduceAlu            0      0.00%     47.02% # attempts to use FU when none available
[...]
system.cpu1.l2cache.ReadSharedReq_miss_rate::.switch_cpus_11.data     0.522493                       # miss rate for ReadSharedReq accesses
system.cpu1.l2cache.ReadSharedReq_miss_rate::total     0.539269                       # miss rate for ReadSharedReq accesses
system.cpu1.l2cache.ReadSharedReq_avg_miss_latency::.switch_cpus1.data 124234.643907                       # average ReadSharedReq miss latency
system.cpu1.l2cache.ReadSharedReq_avg_miss_latency::.switch_cpus_11.data 122332.058202                       # average ReadSharedReq miss latency
system.cpu1.l2cache.ReadSharedReq_avg_miss_latency::total 122465.469818                       # average ReadSharedReq miss latency
system.cpu1.l2cache.ReadSharedReq_mshr_misses::.switch_cpus1.data         1157                       # number of ReadSharedReq MSHR misses
system.cpu1.l2cache.ReadSharedReq_mshr_misses::.switch_cpus_11.data        15343                       # number of ReadSharedReq MSHR misses
system.cpu1.l2cache.ReadSharedReq_mshr_misses::total        16500                       # number of ReadSharedReq MSHR misses
system.cpu1.l2cache.ReadSharedReq_mshr_miss_latency::.switch_cpus1.data    143257014                       # number of ReadSharedReq MSHR miss cycles
system.cpu1.l2cache.ReadSharedReq_mshr_miss_latency::.switch_cpus_11.data   1870542738                       # number of ReadSharedReq MSHR miss cycles
system.cpu1.l2cache.ReadSharedReq_mshr_miss_latency::total   2013799752                       # number of ReadSharedReq MSHR miss cycles
system.cpu1.l2cache.ReadSharedReq_mshr_miss_rate::.switch_cpus1.data     0.939123                       # mshr miss rate for ReadSharedReq accesses
system.cpu1.l2cache.ReadSharedReq_mshr_miss_rate::.switch_cpus_11.data     0.522493                       # mshr miss rate for ReadSharedReq accesses
system.cpu1.l2cache.ReadSharedReq_mshr_miss_rate::total     0.539269                       # mshr miss rate for ReadSharedReq accesses
system.cpu1.l2cache.ReadSharedReq_avg_mshr_miss_latency::.switch_cpus1.data 123817.643907                       # average ReadSharedReq mshr miss latency
system.cpu1.l2cache.ReadSharedReq_avg_mshr_miss_latency::.switch_cpus_11.data 121915.058202                       # average ReadSharedReq mshr miss latency
system.cpu1.l2cache.ReadSharedReq_avg_mshr_miss_latency::total 122048.469818                       # average ReadSharedReq mshr miss latency
system.cpu1.l2cache.tags.pwrStateResidencyTicks::UNDEFINED 1308874498839                       # Cumulative time (in ticks) in various power states
system.cpu1.l2cache.tags.tagsinuse          40.819350                       # Cycle average of tags in use
system.cpu1.l2cache.tags.total_refs             61120                       # Total number of references to valid blocks.
system.cpu1.l2cache.tags.sampled_refs           16809                       # Sample count of references to valid blocks.
system.cpu1.l2cache.tags.avg_refs            3.636147                       # Average number of references to valid blocks.
system.cpu1.l2cache.tags.warmup_cycle    1293351708033                       # Cycle when the warmup percentage was hit.
system.cpu1.l2cache.tags.occ_blocks::.cpu1.inst     0.003696                       # Average occupied blocks per requestor
system.cpu1.l2cache.tags.occ_blocks::.cpu1.data     0.011860                       # Average occupied blocks per requestor
system.cpu1.l2cache.tags.occ_blocks::.switch_cpus1.inst     0.681243                       # Average occupied blocks per requestor
system.cpu1.l2cache.tags.occ_blocks::.switch_cpus1.data     7.034086                       # Average occupied blocks per requestor
system.cpu1.l2cache.tags.occ_blocks::.switch_cpus_11.inst     0.182784                       # Average occupied blocks per requestor
system.cpu1.l2cache.tags.occ_blocks::.switch_cpus_11.data    32.905681                       # Average occupied blocks per requestor
system.cpu1.l2cache.tags.occ_percent::.cpu1.inst     0.000001                       # Average percentage of cache occupancy
system.cpu1.l2cache.tags.occ_percent::.cpu1.data     0.000003                       # Average percentage of cache occupancy
system.cpu1.l2cache.tags.occ_percent::.switch_cpus1.inst     0.000166                       # Average percentage of cache occupancy
system.cpu1.l2cache.tags.occ_percent::.switch_cpus1.data     0.001717                       # Average percentage of cache occupancy
system.cpu1.l2cache.tags.occ_percent::.switch_cpus_11.inst     0.000045                       # Average percentage of cache occupancy
system.cpu1.l2cache.tags.occ_percent::.switch_cpus_11.data     0.008034                       # Average percentage of cache occupancy
system.cpu1.l2cache.tags.occ_percent::total     0.009966                       # Average percentage of cache occupancy
system.cpu1.l2cache.tags.occ_task_id_blocks::1024         4096                       # Occupied blocks per task id
system.cpu1.l2cache.tags.age_task_id_blocks_1024::0           34                       # Occupied blocks per task id
system.cpu1.l2cache.tags.age_task_id_blocks_1024::1          170                       # Occupied blocks per task id
system.cpu1.l2cache.tags.age_task_id_blocks_1024::2          608                       # Occupied blocks per task id
system.cpu1.l2cache.tags.age_task_id_blocks_1024::3         2775                       # Occupied blocks per task id
system.cpu1.l2cache.tags.age_task_id_blocks_1024::4          509                       # Occupied blocks per task id
system.cpu1.l2cache.tags.occ_task_id_percent::1024            1                       # Percentage of cache occupancy per task id
system.cpu1.l2cache.tags.tag_accesses          994761                       # Number of tag accesses
system.cpu1.l2cache.tags.data_accesses         994761                       # Number of data accesses
system.cpu1.toL2Bus.pwrStateResidencyTicks::UNDEFINED 1308874498839                       # Cumulative time (in ticks) in various power states
system.cpu1.toL2Bus.trans_dist::ReadResp        30882                       # Transaction distribution
system.cpu1.toL2Bus.trans_dist::WritebackDirty          105                       # Transaction distribution
system.cpu1.toL2Bus.trans_dist::CleanEvict        42784                       # Transaction distribution
system.cpu1.toL2Bus.trans_dist::ReadExReq           91                       # Transaction distribution
system.cpu1.toL2Bus.trans_dist::ReadExResp           91                       # Transaction distribution
system.cpu1.toL2Bus.trans_dist::ReadCleanReq          285                       # Transaction distribution
system.cpu1.toL2Bus.trans_dist::ReadSharedReq        30597                       # Transaction distribution
system.cpu1.toL2Bus.pkt_count_system.cpu1.icache.mem_side::system.cpu1.l2cache.cpu_side          570                       # Packet count per connected master and slave (bytes)
system.cpu1.toL2Bus.pkt_count_system.cpu1.dcache.mem_side::system.cpu1.l2cache.cpu_side        91552                       # Packet count per connected master and slave (bytes)
system.cpu1.toL2Bus.pkt_count::total            92122                       # Packet count per connected master and slave (bytes)
system.cpu1.toL2Bus.pkt_size_system.cpu1.icache.mem_side::system.cpu1.l2cache.cpu_side        18240                       # Cumulative packet size per connected master and slave (bytes)
system.cpu1.toL2Bus.pkt_size_system.cpu1.dcache.mem_side::system.cpu1.l2cache.cpu_side      1970304                       # Cumulative packet size per connected master and slave (bytes)
system.cpu1.toL2Bus.pkt_size::total           1988544                       # Cumulative packet size per connected master and slave (bytes)
system.cpu1.toL2Bus.snoops                      12713                       # Total snoops (count)
system.cpu1.toL2Bus.snoopTraffic                  448                       # Total snoop traffic (bytes)
system.cpu1.toL2Bus.snoop_fanout::samples        43686                       # Request fanout histogram
system.cpu1.toL2Bus.snoop_fanout::mean       0.008103                       # Request fanout histogram
system.cpu1.toL2Bus.snoop_fanout::stdev      0.089654                       # Request fanout histogram
system.cpu1.toL2Bus.snoop_fanout::underflows            0      0.00%      0.00% # Request fanout histogram
system.cpu1.toL2Bus.snoop_fanout::0             43332     99.19%     99.19% # Request fanout histogram
system.cpu1.toL2Bus.snoop_fanout::1               354      0.81%    100.00% # Request fanout histogram
system.cpu1.toL2Bus.snoop_fanout::2                 0      0.00%    100.00% # Request fanout histogram
system.cpu1.toL2Bus.snoop_fanout::3                 0      0.00%    100.00% # Request fanout histogram
system.cpu1.toL2Bus.snoop_fanout::4                 0      0.00%    100.00% # Request fanout histogram
system.cpu1.toL2Bus.snoop_fanout::overflows            0      0.00%    100.00% # Request fanout histogram
system.cpu1.toL2Bus.snoop_fanout::min_value            0                       # Request fanout histogram
system.cpu1.toL2Bus.snoop_fanout::max_value            1                       # Request fanout histogram
system.cpu1.toL2Bus.snoop_fanout::total         43686                       # Request fanout histogram
system.cpu1.toL2Bus.reqLayer0.occupancy      25580031                       # Layer occupancy (ticks)
system.cpu1.toL2Bus.reqLayer0.utilization          0.2                       # Layer utilization (%)
system.cpu1.toL2Bus.respLayer1.occupancy     38389437                       # Layer occupancy (ticks)
system.cpu1.toL2Bus.respLayer1.utilization          0.2                       # Layer utilization (%)
system.cpu1.toL2Bus.respLayer0.occupancy       355284                       # Layer occupancy (ticks)
system.cpu1.toL2Bus.respLayer0.utilization          0.0                       # Layer utilization (%)
system.switch_cpus_10.pwrStateResidencyTicks::OFF  15522791223                       # Cumulative time (in ticks) in various power states
system.switch_cpus_10.dtb.walker.pwrStateResidencyTicks::UNDEFINED 1308874498839                       # Cumulative time (in ticks) in various power states
system.switch_cpus_10.itb.walker.pwrStateResidencyTicks::UNDEFINED 1308874498839                       # Cumulative time (in ticks) in various power states
system.switch_cpus_11.pwrStateResidencyTicks::OFF  15522791223                       # Cumulative time (in ticks) in various power states
system.switch_cpus_11.dtb.walker.pwrStateResidencyTicks::UNDEFINED 1308874498839                       # Cumulative time (in ticks) in various power states
system.switch_cpus_11.itb.walker.pwrStateResidencyTicks::UNDEFINED 1308874498839                       # Cumulative time (in ticks) in various power states
system.cpu_voltage_domain.voltage                   1                       # Voltage in Volts
system.switch_cpus1.numPwrStateTransitions            1                       # Number of power state transitions
system.switch_cpus1.pwrStateResidencyTicks::UNDEFINED 1293351707616                       # Cumulative time (in ticks) in various power states
system.switch_cpus1.pwrStateResidencyTicks::OFF  15522791223                       # Cumulative time (in ticks) in various power states
system.switch_cpus1.dtb.walker.pwrStateResidencyTicks::UNDEFINED 1308874498839                       # Cumulative time (in ticks) in various power states
system.switch_cpus1.itb.walker.pwrStateResidencyTicks::UNDEFINED 1308874498839                       # Cumulative time (in ticks) in various power states
system.mem_ctrls.pwrStateResidencyTicks::UNDEFINED 1308874498839                       # Cumulative time (in ticks) in various power states
system.mem_ctrls.bytes_read::.cpu0.inst            64                       # Number of bytes read from this memory
system.mem_ctrls.bytes_read::.cpu1.inst            64                       # Number of bytes read from this memory
system.mem_ctrls.bytes_read::.cpu1.data            64                       # Number of bytes read from this memory
system.mem_ctrls.bytes_read::.switch_cpus0.inst         1600                       # Number of bytes read from this memory
system.mem_ctrls.bytes_read::.switch_cpus0.data        36800                       # Number of bytes read from this memory
system.mem_ctrls.bytes_read::.switch_cpus1.inst        12672                       # Number of bytes read from this memory
system.mem_ctrls.bytes_read::.switch_cpus1.data        75392                       # Number of bytes read from this memory
system.mem_ctrls.bytes_read::.switch_cpus_10.inst          640                       # Number of bytes read from this memory
system.mem_ctrls.bytes_read::.switch_cpus_10.data       121216                       # Number of bytes read from this memory
system.mem_ctrls.bytes_read::.switch_cpus_11.inst         5504                       # Number of bytes read from this memory
system.mem_ctrls.bytes_read::.switch_cpus_11.data       981440                       # Number of bytes read from this memory
system.mem_ctrls.bytes_read::total            1235456                       # Number of bytes read from this memory
system.mem_ctrls.bytes_inst_read::.cpu0.inst           64                       # Number of instructions bytes read from this memory
system.mem_ctrls.bytes_inst_read::.cpu1.inst           64                       # Number of instructions bytes read from this memory
system.mem_ctrls.bytes_inst_read::.switch_cpus0.inst         1600                       # Number of instructions bytes read from this memory
system.mem_ctrls.bytes_inst_read::.switch_cpus1.inst        12672                       # Number of instructions bytes read from this memory
system.mem_ctrls.bytes_inst_read::.switch_cpus_10.inst          640                       # Number of instructions bytes read from this memory
system.mem_ctrls.bytes_inst_read::.switch_cpus_11.inst         5504                       # Number of instructions bytes read from this memory
system.mem_ctrls.bytes_inst_read::total         20544                       # Number of instructions bytes read from this memory
system.mem_ctrls.num_reads::.cpu0.inst              1                       # Number of read requests responded to by this memory
system.mem_ctrls.num_reads::.cpu1.inst              1                       # Number of read requests responded to by this memory
system.mem_ctrls.num_reads::.cpu1.data              1                       # Number of read requests responded to by this memory
system.mem_ctrls.num_reads::.switch_cpus0.inst           25                       # Number of read requests responded to by this memory
system.mem_ctrls.num_reads::.switch_cpus0.data          575                       # Number of read requests responded to by this memory
system.mem_ctrls.num_reads::.switch_cpus1.inst          198                       # Number of read requests responded to by this memory
system.mem_ctrls.num_reads::.switch_cpus1.data         1178                       # Number of read requests responded to by this memory
system.mem_ctrls.num_reads::.switch_cpus_10.inst           10                       # Number of read requests responded to by this memory
system.mem_ctrls.num_reads::.switch_cpus_10.data         1894                       # Number of read requests responded to by this memory
system.mem_ctrls.num_reads::.switch_cpus_11.inst           86                       # Number of read requests responded to by this memory
system.mem_ctrls.num_reads::.switch_cpus_11.data        15335                       # Number of read requests responded to by this memory
system.mem_ctrls.num_reads::total               19304                       # Number of read requests responded to by this memory
system.mem_ctrls.bw_read::.cpu0.inst             4123                       # Total read bandwidth from this memory (bytes/s)
system.mem_ctrls.bw_read::.cpu1.inst             4123                       # Total read bandwidth from this memory (bytes/s)
system.mem_ctrls.bw_read::.cpu1.data             4123                       # Total read bandwidth from this memory (bytes/s)
system.mem_ctrls.bw_read::.switch_cpus0.inst       103074                       # Total read bandwidth from this memory (bytes/s)
system.mem_ctrls.bw_read::.switch_cpus0.data      2370708                       # Total read bandwidth from this memory (bytes/s)
system.mem_ctrls.bw_read::.switch_cpus1.inst       816348                       # Total read bandwidth from this memory (bytes/s)
system.mem_ctrls.bw_read::.switch_cpus1.data      4856858                       # Total read bandwidth from this memory (bytes/s)
system.mem_ctrls.bw_read::.switch_cpus_10.inst        41230                       # Total read bandwidth from this memory (bytes/s)
system.mem_ctrls.bw_read::.switch_cpus_10.data      7808905                       # Total read bandwidth from this memory (bytes/s)
system.mem_ctrls.bw_read::.switch_cpus_11.inst       354575                       # Total read bandwidth from this memory (bytes/s)
system.mem_ctrls.bw_read::.switch_cpus_11.data     63225742                       # Total read bandwidth from this memory (bytes/s)
system.mem_ctrls.bw_read::total              79589810                       # Total read bandwidth from this memory (bytes/s)
system.mem_ctrls.bw_inst_read::.cpu0.inst         4123                       # Instruction read bandwidth from this memory (bytes/s)
system.mem_ctrls.bw_inst_read::.cpu1.inst         4123                       # Instruction read bandwidth from this memory (bytes/s)
system.mem_ctrls.bw_inst_read::.switch_cpus0.inst       103074                       # Instruction read bandwidth from this memory (bytes/s)
system.mem_ctrls.bw_inst_read::.switch_cpus1.inst       816348                       # Instruction read bandwidth from this memory (bytes/s)
system.mem_ctrls.bw_inst_read::.switch_cpus_10.inst        41230                       # Instruction read bandwidth from this memory (bytes/s)
system.mem_ctrls.bw_inst_read::.switch_cpus_11.inst       354575                       # Instruction read bandwidth from this memory (bytes/s)
system.mem_ctrls.bw_inst_read::total          1323473                       # Instruction read bandwidth from this memory (bytes/s)
system.mem_ctrls.bw_total::.cpu0.inst            4123                       # Total bandwidth to/from this memory (bytes/s)
system.mem_ctrls.bw_total::.cpu1.inst            4123                       # Total bandwidth to/from this memory (bytes/s)
system.mem_ctrls.bw_total::.cpu1.data            4123                       # Total bandwidth to/from this memory (bytes/s)
system.mem_ctrls.bw_total::.switch_cpus0.inst       103074                       # Total bandwidth to/from this memory (bytes/s)
system.mem_ctrls.bw_total::.switch_cpus0.data      2370708                       # Total bandwidth to/from this memory (bytes/s)
system.mem_ctrls.bw_total::.switch_cpus1.inst       816348                       # Total bandwidth to/from this memory (bytes/s)
system.mem_ctrls.bw_total::.switch_cpus1.data      4856858                       # Total bandwidth to/from this memory (bytes/s)
system.mem_ctrls.bw_total::.switch_cpus_10.inst        41230                       # Total bandwidth to/from this memory (bytes/s)
system.mem_ctrls.bw_total::.switch_cpus_10.data      7808905                       # Total bandwidth to/from this memory (bytes/s)
system.mem_ctrls.bw_total::.switch_cpus_11.inst       354575                       # Total bandwidth to/from this memory (bytes/s)
system.mem_ctrls.bw_total::.switch_cpus_11.data     63225742                       # Total bandwidth to/from this memory (bytes/s)
system.mem_ctrls.bw_total::total             79589810                       # Total bandwidth to/from this memory (bytes/s)
system.cpu_clk_domain.clock                       417                       # Clock period in ticks

---------- End Simulation Statistics   ----------
