
---------- Begin Simulation Statistics ----------
final_tick                               1314743800944                       # Number of ticks from beginning of simulation (restored from checkpoints and never reset)
host_inst_rate                                 166576                       # Simulator instruction rate (inst/s)
host_mem_usage                                4444436                       # Number of bytes of host memory used
host_op_rate                                   327027                       # Simulator op (including micro ops) rate (op/s)
host_seconds                                   543.82                       # Real time elapsed on the host
host_tick_rate                               39336680                       # Simulator tick rate (ticks/s)
sim_freq                                 1000000000000                       # Frequency of simulated ticks
sim_insts                                    90587544                       # Number of instructions simulated
sim_ops                                     177843793                       # Number of ops (including micro ops) simulated
sim_seconds                                  0.021392                       # Number of seconds simulated
sim_ticks                                 21392093328                       # Number of ticks simulated
system.cpu0.committedInsts                          2                       # Number of instructions committed
system.cpu0.committedOps                            2                       # Number of ops (including micro ops) committed
system.cpu0.dtb.rdAccesses                          1                       # TLB accesses on read requests
system.cpu0.dtb.rdMisses                            0                       # TLB misses on read requests
system.cpu0.dtb.wrAccesses                          0                       # TLB accesses on write requests
system.cpu0.dtb.wrMisses                            0                       # TLB misses on write requests
system.cpu0.idle_fraction                           0                       # Percentage of idle cycles
system.cpu0.itb.rdAccesses                          0                       # TLB accesses on read requests
system.cpu0.itb.rdMisses                            0                       # TLB misses on read requests
system.cpu0.itb.wrAccesses                          3                       # TLB accesses on write requests
system.cpu0.itb.wrMisses                            0                       # TLB misses on write requests
system.cpu0.not_idle_fraction                       1                       # Percentage of non-idle cycles
system.cpu0.numCycles                               3                       # number of cpu cycles simulated
system.cpu0.numWorkItemsCompleted                   0                       # number of work items this cpu completed
system.cpu0.numWorkItemsStarted                     0                       # number of work items this cpu started
system.cpu0.num_busy_cycles                         3                       # Number of busy cycles
system.cpu0.num_cc_register_reads                   1                       # number of times the CC registers were read
system.cpu0.num_cc_register_writes                  2                       # number of times the CC registers were written
system.cpu0.num_conditional_control_insts            0                       # number of instructions that are conditional controls
system.cpu0.num_fp_alu_accesses                     0                       # Number of float alu accesses
system.cpu0.num_fp_insts                            0                       # number of float instructions
system.cpu0.num_fp_register_reads                   0                       # number of times the floating registers were read
system.cpu0.num_fp_register_writes                  0                       # number of times the floating registers were written
system.cpu0.num_func_calls                          0                       # number of times a function call or return occured
system.cpu0.num_idle_cycles                         0                       # Number of idle cycles
system.cpu0.num_int_alu_accesses                    2                       # Number of integer alu accesses
system.cpu0.num_int_insts                           2                       # number of integer instructions
system.cpu0.num_int_register_reads                  5                       # number of times the integer registers were read
system.cpu0.num_int_register_writes                 2                       # number of times the integer registers were written
system.cpu0.num_load_insts                          1                       # Number of load instructions
system.cpu0.num_mem_refs                            1                       # number of memory refs
system.cpu0.num_store_insts                         0                       # Number of store instructions
system.cpu0.num_vec_alu_accesses                    0                       # Number of vector alu accesses
system.cpu0.num_vec_insts                           0                       # number of vector instructions
system.cpu0.num_vec_register_reads                  0                       # number of times the vector registers were read
system.cpu0.num_vec_register_writes                 0                       # number of times the vector registers were written
system.cpu0.op_class::No_OpClass                    0      0.00%      0.00% # Class of executed instruction
system.cpu0.op_class::IntAlu                        1     50.00%     50.00% # Class of executed instruction
system.cpu0.op_class::IntMult                       0      0.00%     50.00% # Class of executed instruction
system.cpu0.op_class::IntDiv                        0      0.00%     50.00% # Class of executed instruction
system.cpu0.op_class::FloatAdd                      0      0.00%     50.00% # Class of executed instruction
system.cpu0.op_class::FloatCmp                      0      0.00%     50.00% # Class of executed instruction
system.cpu0.op_class::FloatCvt                      0      0.00%     50.00% # Class of executed instruction
system.cpu0.op_class::FloatMult                     0      0.00%     50.00% # Class of executed instruction
system.cpu0.op_class::FloatMultAcc                  0      0.00%     50.00% # Class of executed instruction
system.cpu0.op_class::FloatDiv                      0      0.00%     50.00% # Class of executed instruction
system.cpu0.op_class::FloatMisc                     0      0.00%     50.00% # Class of executed instruction
system.cpu0.op_class::FloatSqrt                     0      0.00%     50.00% # Class of executed instruction
system.cpu0.op_class::SimdAdd                       0      0.00%     50.00% # Class of executed instruction
system.cpu0.op_class::SimdAddAcc                    0      0.00%     50.00% # Class of executed instruction
system.cpu0.op_class::SimdAlu                       0      0.00%     50.00% # Class of executed instruction
system.cpu0.op_class::SimdCmp                       0      0.00%     50.00% # Class of executed instruction
system.cpu0.op_class::SimdCvt                       0      0.00%     50.00% # Class of executed instruction
system.cpu0.op_class::SimdMisc                      0      0.00%     50.00% # Class of executed instruction
system.cpu0.op_class::SimdMult                      0      0.00%     50.00% # Class of executed instruction
system.cpu0.op_class::SimdMultAcc                   0      0.00%     50.00% # Class of executed instruction
system.cpu0.op_class::SimdShift                     0      0.00%     50.00% # Class of executed instruction
system.cpu0.op_class::SimdShiftAcc                  0      0.00%     50.00% # Class of executed instruction
system.cpu0.op_class::SimdDiv                       0      0.00%     50.00% # Class of executed instruction
system.cpu0.op_class::SimdSqrt                      0      0.00%     50.00% # Class of executed instruction
system.cpu0.op_class::SimdFloatAdd                  0      0.00%     50.00% # Class of executed instruction
system.cpu0.op_class::SimdFloatAlu                  0      0.00%     50.00% # Class of executed instruction
system.cpu0.op_class::SimdFloatCmp                  0      0.00%     50.00% # Class of executed instruction
system.cpu0.op_class::SimdFloatCvt                  0      0.00%     50.00% # Class of executed instruction
system.cpu0.op_class::SimdFloatDiv                  0      0.00%     50.00% # Class of executed instruction
system.cpu0.op_class::SimdFloatMisc                 0      0.00%     50.00% # Class of executed instruction
system.cpu0.op_class::SimdFloatMult                 0      0.00%     50.00% # Class of executed instruction
system.cpu0.op_class::SimdFloatMultAcc              0      0.00%     50.00% # Class of executed instruction
system.cpu0.op_class::SimdFloatSqrt                 0      0.00%     50.00% # Class of executed instruction
system.cpu0.op_class::SimdReduceAdd                 0      0.00%     50.00% # Class of executed instruction
system.cpu0.op_class::SimdReduceAlu                 0      0.00%     50.00% # Class of executed instruction
system.cpu0.op_class::SimdReduceCmp                 0      0.00%     50.00% # Class of executed instruction
system.cpu0.op_class::SimdFloatReduceAdd            0      0.00%     50.00% # Class of executed instruction
system.cpu0.op_class::SimdFloatReduceCmp            0      0.00%     50.00% # Class of executed instruction
system.cpu0.op_class::SimdAes                       0      0.00%     50.00% # Class of executed instruction
system.cpu0.op_class::SimdAesMix                    0      0.00%     50.00% # Class of executed instruction
system.cpu0.op_class::SimdSha1Hash                  0      0.00%     50.00% # Class of executed instruction
system.cpu0.op_class::SimdSha1Hash2                 0      0.00%     50.00% # Class of executed instruction
system.cpu0.op_class::SimdSha256Hash                0      0.00%     50.00% # Class of executed instruction
system.cpu0.op_class::SimdSha256Hash2               0      0.00%     50.00% # Class of executed instruction
system.cpu0.op_class::SimdShaSigma2                 0      0.00%     50.00% # Class of executed instruction
system.cpu0.op_class::SimdShaSigma3                 0      0.00%     50.00% # Class of executed instruction
system.cpu0.op_class::SimdPredAlu                   0      0.00%     50.00% # Class of executed instruction
system.cpu0.op_class::MemRead                       1     50.00%    100.00% # Class of executed instruction
system.cpu0.op_class::MemWrite                      0      0.00%    100.00% # Class of executed instruction
system.cpu0.op_class::FloatMemRead                  0      0.00%    100.00% # Class of executed instruction
system.cpu0.op_class::FloatMemWrite                 0      0.00%    100.00% # Class of executed instruction
system.cpu0.op_class::IprAccess                     0      0.00%    100.00% # Class of executed instruction
system.cpu0.op_class::InstPrefetch                  0      0.00%    100.00% # Class of executed instruction
system.cpu0.op_class::total                         2                       # Class of executed instruction
system.cpu0.toL2Bus.snoop_filter.hit_multi_requests            0                       # Number of requests hitting in the snoop filter with multiple (>1) holders of the requested data.
system.cpu0.toL2Bus.snoop_filter.hit_multi_snoops            1                       # Number of snoops hitting in the snoop filter with multiple (>1) holders of the requested data.
system.cpu0.toL2Bus.snoop_filter.hit_single_requests         6318                       # Number of requests hitting in the snoop filter with a single holder of the requested data.
system.cpu0.toL2Bus.snoop_filter.hit_single_snoops          497                       # Number of snoops hitting in the snoop filter with a single holder of the requested data.
system.cpu0.toL2Bus.snoop_filter.tot_requests        13653                       # Total number of requests made to the snoop filter.
system.cpu0.toL2Bus.snoop_filter.tot_snoops          498                       # Total number of snoops made to the snoop filter.
system.cpu0.toL3Bus.snoop_filter.hit_multi_requests            0                       # Number of requests hitting in the snoop filter with multiple (>1) holders of the requested data.
system.cpu0.toL3Bus.snoop_filter.hit_multi_snoops            0                       # Number of snoops hitting in the snoop filter with multiple (>1) holders of the requested data.
system.cpu0.toL3Bus.snoop_filter.hit_single_requests         1463                       # Number of requests hitting in the snoop filter with a single holder of the requested data.
system.cpu0.toL3Bus.snoop_filter.hit_single_snoops            0                       # Number of snoops hitting in the snoop filter with a single holder of the requested data.
system.cpu0.toL3Bus.snoop_filter.tot_requests         7515                       # Total number of requests made to the snoop filter.
system.cpu0.toL3Bus.snoop_filter.tot_snoops            0                       # Total number of snoops made to the snoop filter.
system.cpu0.workload.numSyscalls                   94                       # Number of system calls
system.cpu1.Branches                                1                       # Number of branches fetched
system.cpu1.committedInsts                          1                       # Number of instructions committed
system.cpu1.committedOps                            5                       # Number of ops (including micro ops) committed
system.cpu1.dtb.rdAccesses                          0                       # TLB accesses on read requests
system.cpu1.dtb.rdMisses                            0                       # TLB misses on read requests
system.cpu1.dtb.wrAccesses                          1                       # TLB accesses on write requests
system.cpu1.dtb.wrMisses                            0                       # TLB misses on write requests
system.cpu1.idle_fraction                           0                       # Percentage of idle cycles
system.cpu1.itb.rdAccesses                          0                       # TLB accesses on read requests
system.cpu1.itb.rdMisses                            0                       # TLB misses on read requests
system.cpu1.itb.wrAccesses                          2                       # TLB accesses on write requests
system.cpu1.itb.wrMisses                            0                       # TLB misses on write requests
system.cpu1.not_idle_fraction                       1                       # Percentage of non-idle cycles
system.cpu1.numCycles                               6                       # number of cpu cycles simulated
system.cpu1.numWorkItemsCompleted                   0                       # number of work items this cpu completed
system.cpu1.numWorkItemsStarted                     0                       # number of work items this cpu started
system.cpu1.num_busy_cycles                         6                       # Number of busy cycles
system.cpu1.num_conditional_control_insts            0                       # number of instructions that are conditional controls
system.cpu1.num_fp_alu_accesses                     0                       # Number of float alu accesses
system.cpu1.num_fp_insts                            0                       # number of float instructions
system.cpu1.num_fp_register_reads                   0                       # number of times the floating registers were read
system.cpu1.num_fp_register_writes                  0                       # number of times the floating registers were written
system.cpu1.num_func_calls                          1                       # number of times a function call or return occured
system.cpu1.num_idle_cycles                         0                       # Number of idle cycles
system.cpu1.num_int_alu_accesses                    5                       # Number of integer alu accesses
system.cpu1.num_int_insts                           5                       # number of integer instructions
system.cpu1.num_int_register_reads                  9                       # number of times the integer registers were read
system.cpu1.num_int_register_writes                 3                       # number of times the integer registers were written
system.cpu1.num_load_insts                          0                       # Number of load instructions
system.cpu1.num_mem_refs                            1                       # number of memory refs
system.cpu1.num_store_insts                         1                       # Number of store instructions
system.cpu1.num_vec_alu_accesses                    0                       # Number of vector alu accesses
system.cpu1.num_vec_insts                           0                       # number of vector instructions
system.cpu1.num_vec_register_reads                  0                       # number of times the vector registers were read
system.cpu1.num_vec_register_writes                 0                       # number of times the vector registers were written
system.cpu1.op_class::No_OpClass                    0      0.00%      0.00% # Class of executed instruction
system.cpu1.op_class::IntAlu                        4     80.00%     80.00% # Class of executed instruction
system.cpu1.op_class::IntMult                       0      0.00%     80.00% # Class of executed instruction
system.cpu1.op_class::IntDiv                        0      0.00%     80.00% # Class of executed instruction
system.cpu1.op_class::FloatAdd                      0      0.00%     80.00% # Class of executed instruction
system.cpu1.op_class::FloatCmp                      0      0.00%     80.00% # Class of executed instruction
system.cpu1.op_class::FloatCvt                      0      0.00%     80.00% # Class of executed instruction
system.cpu1.op_class::FloatMult                     0      0.00%     80.00% # Class of executed instruction
system.cpu1.op_class::FloatMultAcc                  0      0.00%     80.00% # Class of executed instruction
system.cpu1.op_class::FloatDiv                      0      0.00%     80.00% # Class of executed instruction
system.cpu1.op_class::FloatMisc                     0      0.00%     80.00% # Class of executed instruction
system.cpu1.op_class::FloatSqrt                     0      0.00%     80.00% # Class of executed instruction
system.cpu1.op_class::SimdAdd                       0      0.00%     80.00% # Class of executed instruction
system.cpu1.op_class::SimdAddAcc                    0      0.00%     80.00% # Class of executed instruction
system.cpu1.op_class::SimdAlu                       0      0.00%     80.00% # Class of executed instruction
system.cpu1.op_class::SimdCmp                       0      0.00%     80.00% # Class of executed instruction
system.cpu1.op_class::SimdCvt                       0      0.00%     80.00% # Class of executed instruction
system.cpu1.op_class::SimdMisc                      0      0.00%     80.00% # Class of executed instruction
system.cpu1.op_class::SimdMult                      0      0.00%     80.00% # Class of executed instruction
system.cpu1.op_class::SimdMultAcc                   0      0.00%     80.00% # Class of executed instruction
system.cpu1.op_class::SimdShift                     0      0.00%     80.00% # Class of executed instruction
system.cpu1.op_class::SimdShiftAcc                  0      0.00%     80.00% # Class of executed instruction
system.cpu1.op_class::SimdDiv                       0      0.00%     80.00% # Class of executed instruction
system.cpu1.op_class::SimdSqrt                      0      0.00%     80.00% # Class of executed instruction
system.cpu1.op_class::SimdFloatAdd                  0      0.00%     80.00% # Class of executed instruction
system.cpu1.op_class::SimdFloatAlu                  0      0.00%     80.00% # Class of executed instruction
system.cpu1.op_class::SimdFloatCmp                  0      0.00%     80.00% # Class of executed instruction
system.cpu1.op_class::SimdFloatCvt                  0      0.00%     80.00% # Class of executed instruction
system.cpu1.op_class::SimdFloatDiv                  0      0.00%     80.00% # Class of executed instruction
system.cpu1.op_class::SimdFloatMisc                 0      0.00%     80.00% # Class of executed instruction
system.cpu1.op_class::SimdFloatMult                 0      0.00%     80.00% # Class of executed instruction
system.cpu1.op_class::SimdFloatMultAcc              0      0.00%     80.00% # Class of executed instruction
system.cpu1.op_class::SimdFloatSqrt                 0      0.00%     80.00% # Class of executed instruction
system.cpu1.op_class::SimdReduceAdd                 0      0.00%     80.00% # Class of executed instruction
system.cpu1.op_class::SimdReduceAlu                 0      0.00%     80.00% # Class of executed instruction
system.cpu1.op_class::SimdReduceCmp                 0      0.00%     80.00% # Class of executed instruction
system.cpu1.op_class::SimdFloatReduceAdd            0      0.00%     80.00% # Class of executed instruction
system.cpu1.op_class::SimdFloatReduceCmp            0      0.00%     80.00% # Class of executed instruction
system.cpu1.op_class::SimdAes                       0      0.00%     80.00% # Class of executed instruction
system.cpu1.op_class::SimdAesMix                    0      0.00%     80.00% # Class of executed instruction
system.cpu1.op_class::SimdSha1Hash                  0      0.00%     80.00% # Class of executed instruction
system.cpu1.op_class::SimdSha1Hash2                 0      0.00%     80.00% # Class of executed instruction
system.cpu1.op_class::SimdSha256Hash                0      0.00%     80.00% # Class of executed instruction
system.cpu1.op_class::SimdSha256Hash2               0      0.00%     80.00% # Class of executed instruction
system.cpu1.op_class::SimdShaSigma2                 0      0.00%     80.00% # Class of executed instruction
system.cpu1.op_class::SimdShaSigma3                 0      0.00%     80.00% # Class of executed instruction
system.cpu1.op_class::SimdPredAlu                   0      0.00%     80.00% # Class of executed instruction
system.cpu1.op_class::MemRead                       0      0.00%     80.00% # Class of executed instruction
system.cpu1.op_class::MemWrite                      1     20.00%    100.00% # Class of executed instruction
system.cpu1.op_class::FloatMemRead                  0      0.00%    100.00% # Class of executed instruction
system.cpu1.op_class::FloatMemWrite                 0      0.00%    100.00% # Class of executed instruction
system.cpu1.op_class::IprAccess                     0      0.00%    100.00% # Class of executed instruction
system.cpu1.op_class::InstPrefetch                  0      0.00%    100.00% # Class of executed instruction
system.cpu1.op_class::total                         5                       # Class of executed instruction
system.cpu1.toL2Bus.snoop_filter.hit_multi_requests           35                       # Number of requests hitting in the snoop filter with multiple (>1) holders of the requested data.
system.cpu1.toL2Bus.snoop_filter.hit_multi_snoops            0                       # Number of snoops hitting in the snoop filter with multiple (>1) holders of the requested data.
system.cpu1.toL2Bus.snoop_filter.hit_single_requests        43599                       # Number of requests hitting in the snoop filter with a single holder of the requested data.
system.cpu1.toL2Bus.snoop_filter.hit_single_snoops          333                       # Number of snoops hitting in the snoop filter with a single holder of the requested data.
system.cpu1.toL2Bus.snoop_filter.tot_requests        87995                       # Total number of requests made to the snoop filter.
system.cpu1.toL2Bus.snoop_filter.tot_snoops          333                       # Total number of snoops made to the snoop filter.
system.cpu1.toL3Bus.snoop_filter.hit_multi_requests            0                       # Number of requests hitting in the snoop filter with multiple (>1) holders of the requested data.
system.cpu1.toL3Bus.snoop_filter.hit_multi_snoops            0                       # Number of snoops hitting in the snoop filter with multiple (>1) holders of the requested data.
system.cpu1.toL3Bus.snoop_filter.hit_single_requests        19395                       # Number of requests hitting in the snoop filter with a single holder of the requested data.
system.cpu1.toL3Bus.snoop_filter.hit_single_snoops            2                       # Number of snoops hitting in the snoop filter with a single holder of the requested data.
system.cpu1.toL3Bus.snoop_filter.tot_requests        43207                       # Total number of requests made to the snoop filter.
system.cpu1.toL3Bus.snoop_filter.tot_snoops            2                       # Total number of snoops made to the snoop filter.
system.cpu1.workload.numSyscalls                13165                       # Number of system calls
system.membus.snoop_filter.hit_multi_requests            0                       # Number of requests hitting in the snoop filter with multiple (>1) holders of the requested data.
system.membus.snoop_filter.hit_multi_snoops            0                       # Number of snoops hitting in the snoop filter with multiple (>1) holders of the requested data.
system.membus.snoop_filter.hit_single_requests            2                       # Number of requests hitting in the snoop filter with a single holder of the requested data.
system.membus.snoop_filter.hit_single_snoops            0                       # Number of snoops hitting in the snoop filter with a single holder of the requested data.
system.membus.snoop_filter.tot_requests         29849                       # Total number of requests made to the snoop filter.
system.membus.snoop_filter.tot_snoops               0                       # Total number of snoops made to the snoop filter.
system.switch_cpus0.Branches                   281605                       # Number of branches fetched
system.switch_cpus0.committedInsts            1000002                       # Number of instructions committed
system.switch_cpus0.committedOps              2056512                       # Number of ops (including micro ops) committed
system.switch_cpus0.dtb.rdAccesses             257211                       # TLB accesses on read requests
system.switch_cpus0.dtb.rdMisses                   33                       # TLB misses on read requests
system.switch_cpus0.dtb.wrAccesses             148913                       # TLB accesses on write requests
system.switch_cpus0.dtb.wrMisses                   56                       # TLB misses on write requests
system.switch_cpus0.idle_fraction            0.000000                       # Percentage of idle cycles
system.switch_cpus0.itb.rdAccesses                  0                       # TLB accesses on read requests
system.switch_cpus0.itb.rdMisses                    0                       # TLB misses on read requests
system.switch_cpus0.itb.wrAccesses            1179610                       # TLB accesses on write requests
system.switch_cpus0.itb.wrMisses                   61                       # TLB misses on write requests
system.switch_cpus0.not_idle_fraction        1.000000                       # Percentage of non-idle cycles
system.switch_cpus0.numCycles                 5279228                       # number of cpu cycles simulated
system.switch_cpus0.numWorkItemsCompleted            0                       # number of work items this cpu completed
system.switch_cpus0.numWorkItemsStarted             0                       # number of work items this cpu started
system.switch_cpus0.num_busy_cycles      5279227.382546                       # Number of busy cycles
system.switch_cpus0.num_cc_register_reads      1176914                       # number of times the CC registers were read
system.switch_cpus0.num_cc_register_writes       547768                       # number of times the CC registers were written
system.switch_cpus0.num_conditional_control_insts       184720                       # number of instructions that are conditional controls
system.switch_cpus0.num_fp_alu_accesses         49772                       # Number of float alu accesses
system.switch_cpus0.num_fp_insts                49772                       # number of float instructions
system.switch_cpus0.num_fp_register_reads        72104                       # number of times the floating registers were read
system.switch_cpus0.num_fp_register_writes        38891                       # number of times the floating registers were written
system.switch_cpus0.num_func_calls              60299                       # number of times a function call or return occured
system.switch_cpus0.num_idle_cycles          0.617454                       # Number of idle cycles
system.switch_cpus0.num_int_alu_accesses      2022290                       # Number of integer alu accesses
system.switch_cpus0.num_int_insts             2022290                       # number of integer instructions
system.switch_cpus0.num_int_register_reads      4051873                       # number of times the integer registers were read
system.switch_cpus0.num_int_register_writes      1596818                       # number of times the integer registers were written
system.switch_cpus0.num_load_insts             256672                       # Number of load instructions
system.switch_cpus0.num_mem_refs               405521                       # number of memory refs
system.switch_cpus0.num_store_insts            148849                       # Number of store instructions
system.switch_cpus0.num_vec_alu_accesses            0                       # Number of vector alu accesses
system.switch_cpus0.num_vec_insts                   0                       # number of vector instructions
system.switch_cpus0.num_vec_register_reads            0                       # number of times the vector registers were read
system.switch_cpus0.num_vec_register_writes            0                       # number of times the vector registers were written
system.switch_cpus0.op_class::No_OpClass         8010      0.39%      0.39% # Class of executed instruction
system.switch_cpus0.op_class::IntAlu          1602928     77.94%     78.33% # Class of executed instruction
system.switch_cpus0.op_class::IntMult            1179      0.06%     78.39% # Class of executed instruction
system.switch_cpus0.op_class::IntDiv             6624      0.32%     78.71% # Class of executed instruction
system.switch_cpus0.op_class::FloatAdd            917      0.04%     78.76% # Class of executed instruction
system.switch_cpus0.op_class::FloatCmp              0      0.00%     78.76% # Class of executed instruction
system.switch_cpus0.op_class::FloatCvt              0      0.00%     78.76% # Class of executed instruction
system.switch_cpus0.op_class::FloatMult             0      0.00%     78.76% # Class of executed instruction
system.switch_cpus0.op_class::FloatMultAcc            0      0.00%     78.76% # Class of executed instruction
system.switch_cpus0.op_class::FloatDiv              0      0.00%     78.76% # Class of executed instruction
system.switch_cpus0.op_class::FloatMisc             0      0.00%     78.76% # Class of executed instruction
system.switch_cpus0.op_class::FloatSqrt             0      0.00%     78.76% # Class of executed instruction
system.switch_cpus0.op_class::SimdAdd             264      0.01%     78.77% # Class of executed instruction
system.switch_cpus0.op_class::SimdAddAcc            0      0.00%     78.77% # Class of executed instruction
system.switch_cpus0.op_class::SimdAlu            8189      0.40%     79.17% # Class of executed instruction
system.switch_cpus0.op_class::SimdCmp              12      0.00%     79.17% # Class of executed instruction
system.switch_cpus0.op_class::SimdCvt            7050      0.34%     79.51% # Class of executed instruction
system.switch_cpus0.op_class::SimdMisc           8507      0.41%     79.93% # Class of executed instruction
system.switch_cpus0.op_class::SimdMult              0      0.00%     79.93% # Class of executed instruction
system.switch_cpus0.op_class::SimdMultAcc            0      0.00%     79.93% # Class of executed instruction
system.switch_cpus0.op_class::SimdShift           436      0.02%     79.95% # Class of executed instruction
system.switch_cpus0.op_class::SimdShiftAcc            0      0.00%     79.95% # Class of executed instruction
system.switch_cpus0.op_class::SimdDiv               0      0.00%     79.95% # Class of executed instruction
system.switch_cpus0.op_class::SimdSqrt              0      0.00%     79.95% # Class of executed instruction
system.switch_cpus0.op_class::SimdFloatAdd         3227      0.16%     80.10% # Class of executed instruction
system.switch_cpus0.op_class::SimdFloatAlu            0      0.00%     80.10% # Class of executed instruction
system.switch_cpus0.op_class::SimdFloatCmp            0      0.00%     80.10% # Class of executed instruction
system.switch_cpus0.op_class::SimdFloatCvt         1216      0.06%     80.16% # Class of executed instruction
system.switch_cpus0.op_class::SimdFloatDiv            0      0.00%     80.16% # Class of executed instruction
system.switch_cpus0.op_class::SimdFloatMisc            0      0.00%     80.16% # Class of executed instruction
system.switch_cpus0.op_class::SimdFloatMult         1824      0.09%     80.25% # Class of executed instruction
system.switch_cpus0.op_class::SimdFloatMultAcc            0      0.00%     80.25% # Class of executed instruction
system.switch_cpus0.op_class::SimdFloatSqrt          608      0.03%     80.28% # Class of executed instruction
system.switch_cpus0.op_class::SimdReduceAdd            0      0.00%     80.28% # Class of executed instruction
system.switch_cpus0.op_class::SimdReduceAlu            0      0.00%     80.28% # Class of executed instruction
system.switch_cpus0.op_class::SimdReduceCmp            0      0.00%     80.28% # Class of executed instruction
system.switch_cpus0.op_class::SimdFloatReduceAdd            0      0.00%     80.28% # Class of executed instruction
system.switch_cpus0.op_class::SimdFloatReduceCmp            0      0.00%     80.28% # Class of executed instruction
system.switch_cpus0.op_class::SimdAes               0      0.00%     80.28% # Class of executed instruction
system.switch_cpus0.op_class::SimdAesMix            0      0.00%     80.28% # Class of executed instruction
system.switch_cpus0.op_class::SimdSha1Hash            0      0.00%     80.28% # Class of executed instruction
system.switch_cpus0.op_class::SimdSha1Hash2            0      0.00%     80.28% # Class of executed instruction
system.switch_cpus0.op_class::SimdSha256Hash            0      0.00%     80.28% # Class of executed instruction
system.switch_cpus0.op_class::SimdSha256Hash2            0      0.00%     80.28% # Class of executed instruction
system.switch_cpus0.op_class::SimdShaSigma2            0      0.00%     80.28% # Class of executed instruction
system.switch_cpus0.op_class::SimdShaSigma3            0      0.00%     80.28% # Class of executed instruction
system.switch_cpus0.op_class::SimdPredAlu            0      0.00%     80.28% # Class of executed instruction
system.switch_cpus0.op_class::MemRead          242642     11.80%     92.08% # Class of executed instruction
system.switch_cpus0.op_class::MemWrite         145885      7.09%     99.17% # Class of executed instruction
system.switch_cpus0.op_class::FloatMemRead        14030      0.68%     99.86% # Class of executed instruction
system.switch_cpus0.op_class::FloatMemWrite         2964      0.14%    100.00% # Class of executed instruction
system.switch_cpus0.op_class::IprAccess             0      0.00%    100.00% # Class of executed instruction
system.switch_cpus0.op_class::InstPrefetch            0      0.00%    100.00% # Class of executed instruction
system.switch_cpus0.op_class::total           2056512                       # Class of executed instruction
system.switch_cpus1.Branches                   205781                       # Number of branches fetched
system.switch_cpus1.committedInsts             915425                       # Number of instructions committed
system.switch_cpus1.committedOps              1852712                       # Number of ops (including micro ops) committed
system.switch_cpus1.dtb.rdAccesses             267293                       # TLB accesses on read requests
system.switch_cpus1.dtb.rdMisses                   40                       # TLB misses on read requests
system.switch_cpus1.dtb.wrAccesses             195242                       # TLB accesses on write requests
system.switch_cpus1.dtb.wrMisses                    3                       # TLB misses on write requests
system.switch_cpus1.idle_fraction            0.000000                       # Percentage of idle cycles
system.switch_cpus1.itb.rdAccesses                  0                       # TLB accesses on read requests
system.switch_cpus1.itb.rdMisses                    0                       # TLB misses on read requests
system.switch_cpus1.itb.wrAccesses            1160602                       # TLB accesses on write requests
system.switch_cpus1.itb.wrMisses                   27                       # TLB misses on write requests
system.switch_cpus1.not_idle_fraction        1.000000                       # Percentage of non-idle cycles
system.switch_cpus1.numCycles                 5279228                       # number of cpu cycles simulated
system.switch_cpus1.numWorkItemsCompleted            0                       # number of work items this cpu completed
system.switch_cpus1.numWorkItemsStarted             0                       # number of work items this cpu started
system.switch_cpus1.num_busy_cycles      5279227.382546                       # Number of busy cycles
system.switch_cpus1.num_cc_register_reads       767108                       # number of times the CC registers were read
system.switch_cpus1.num_cc_register_writes       411332                       # number of times the CC registers were written
system.switch_cpus1.num_conditional_control_insts        93771                       # number of instructions that are conditional controls
system.switch_cpus1.num_fp_alu_accesses         15079                       # Number of float alu accesses
system.switch_cpus1.num_fp_insts                15079                       # number of float instructions
system.switch_cpus1.num_fp_register_reads        25313                       # number of times the floating registers were read
system.switch_cpus1.num_fp_register_writes        13263                       # number of times the floating registers were written
system.switch_cpus1.num_func_calls              97054                       # number of times a function call or return occured
system.switch_cpus1.num_idle_cycles          0.617454                       # Number of idle cycles
system.switch_cpus1.num_int_alu_accesses      1833668                       # Number of integer alu accesses
system.switch_cpus1.num_int_insts             1833668                       # number of integer instructions
system.switch_cpus1.num_int_register_reads      3887234                       # number of times the integer registers were read
system.switch_cpus1.num_int_register_writes      1438378                       # number of times the integer registers were written
system.switch_cpus1.num_load_insts             267291                       # Number of load instructions
system.switch_cpus1.num_mem_refs               462531                       # number of memory refs
system.switch_cpus1.num_store_insts            195240                       # Number of store instructions
system.switch_cpus1.num_vec_alu_accesses            0                       # Number of vector alu accesses
system.switch_cpus1.num_vec_insts                   0                       # number of vector instructions
system.switch_cpus1.num_vec_register_reads            0                       # number of times the vector registers were read
system.switch_cpus1.num_vec_register_writes            0                       # number of times the vector registers were written
system.switch_cpus1.op_class::No_OpClass         6170      0.33%      0.33% # Class of executed instruction
system.switch_cpus1.op_class::IntAlu          1370195     73.96%     74.29% # Class of executed instruction
system.switch_cpus1.op_class::IntMult             855      0.05%     74.34% # Class of executed instruction
system.switch_cpus1.op_class::IntDiv             2107      0.11%     74.45% # Class of executed instruction
system.switch_cpus1.op_class::FloatAdd            601      0.03%     74.48% # Class of executed instruction
system.switch_cpus1.op_class::FloatCmp              0      0.00%     74.48% # Class of executed instruction
system.switch_cpus1.op_class::FloatCvt              0      0.00%     74.48% # Class of executed instruction
system.switch_cpus1.op_class::FloatMult             0      0.00%     74.48% # Class of executed instruction
system.switch_cpus1.op_class::FloatMultAcc            0      0.00%     74.48% # Class of executed instruction
system.switch_cpus1.op_class::FloatDiv              0      0.00%     74.48% # Class of executed instruction
system.switch_cpus1.op_class::FloatMisc             0      0.00%     74.48% # Class of executed instruction
system.switch_cpus1.op_class::FloatSqrt             0      0.00%     74.48% # Class of executed instruction
system.switch_cpus1.op_class::SimdAdd               0      0.00%     74.48% # Class of executed instruction
system.switch_cpus1.op_class::SimdAddAcc            0      0.00%     74.48% # Class of executed instruction
system.switch_cpus1.op_class::SimdAlu            2412      0.13%     74.61% # Class of executed instruction
system.switch_cpus1.op_class::SimdCmp               0      0.00%     74.61% # Class of executed instruction
system.switch_cpus1.op_class::SimdCvt            2418      0.13%     74.74% # Class of executed instruction
system.switch_cpus1.op_class::SimdMisc           5423      0.29%     75.03% # Class of executed instruction
system.switch_cpus1.op_class::SimdMult              0      0.00%     75.03% # Class of executed instruction
system.switch_cpus1.op_class::SimdMultAcc            0      0.00%     75.03% # Class of executed instruction
system.switch_cpus1.op_class::SimdShift             0      0.00%     75.03% # Class of executed instruction
system.switch_cpus1.op_class::SimdShiftAcc            0      0.00%     75.03% # Class of executed instruction
system.switch_cpus1.op_class::SimdDiv               0      0.00%     75.03% # Class of executed instruction
system.switch_cpus1.op_class::SimdSqrt              0      0.00%     75.03% # Class of executed instruction
system.switch_cpus1.op_class::SimdFloatAdd            0      0.00%     75.03% # Class of executed instruction
system.switch_cpus1.op_class::SimdFloatAlu            0      0.00%     75.03% # Class of executed instruction
system.switch_cpus1.op_class::SimdFloatCmp            0      0.00%     75.03% # Class of executed instruction
system.switch_cpus1.op_class::SimdFloatCvt            0      0.00%     75.03% # Class of executed instruction
system.switch_cpus1.op_class::SimdFloatDiv            0      0.00%     75.03% # Class of executed instruction
system.switch_cpus1.op_class::SimdFloatMisc            0      0.00%     75.03% # Class of executed instruction
system.switch_cpus1.op_class::SimdFloatMult            0      0.00%     75.03% # Class of executed instruction
system.switch_cpus1.op_class::SimdFloatMultAcc            0      0.00%     75.03% # Class of executed instruction
system.switch_cpus1.op_class::SimdFloatSqrt            0      0.00%     75.03% # Class of executed instruction
system.switch_cpus1.op_class::SimdReduceAdd            0      0.00%     75.03% # Class of executed instruction
system.switch_cpus1.op_class::SimdReduceAlu            0      0.00%     75.03% # Class of executed instruction
system.switch_cpus1.op_class::SimdReduceCmp            0      0.00%     75.03% # Class of executed instruction
system.switch_cpus1.op_class::SimdFloatReduceAdd            0      0.00%     75.03% # Class of executed instruction
system.switch_cpus1.op_class::SimdFloatReduceCmp            0      0.00%     75.03% # Class of executed instruction
system.switch_cpus1.op_class::SimdAes               0      0.00%     75.03% # Class of executed instruction
system.switch_cpus1.op_class::SimdAesMix            0      0.00%     75.03% # Class of executed instruction
system.switch_cpus1.op_class::SimdSha1Hash            0      0.00%     75.03% # Class of executed instruction
system.switch_cpus1.op_class::SimdSha1Hash2            0      0.00%     75.03% # Class of executed instruction
system.switch_cpus1.op_class::SimdSha256Hash            0      0.00%     75.03% # Class of executed instruction
system.switch_cpus1.op_class::SimdSha256Hash2            0      0.00%     75.03% # Class of executed instruction
system.switch_cpus1.op_class::SimdShaSigma2            0      0.00%     75.03% # Class of executed instruction
system.switch_cpus1.op_class::SimdShaSigma3            0      0.00%     75.03% # Class of executed instruction
system.switch_cpus1.op_class::SimdPredAlu            0      0.00%     75.03% # Class of executed instruction
system.switch_cpus1.op_class::MemRead          265469     14.33%     89.36% # Class of executed instruction
system.switch_cpus1.op_class::MemWrite         194640     10.51%     99.87% # Class of executed instruction
system.switch_cpus1.op_class::FloatMemRead         1822      0.10%     99.97% # Class of executed instruction
system.switch_cpus1.op_class::FloatMemWrite          600      0.03%    100.00% # Class of executed instruction
system.switch_cpus1.op_class::IprAccess             0      0.00%    100.00% # Class of executed instruction
system.switch_cpus1.op_class::InstPrefetch            0      0.00%    100.00% # Class of executed instruction
system.switch_cpus1.op_class::total           1852712                       # Class of executed instruction
system.switch_cpus_10.branchPred.BTBCorrect            0                       # Number of correct BTB predictions (this stat may not work properly.
system.switch_cpus_10.branchPred.BTBHitPct     0.000000                       # BTB Hit Percentage
system.switch_cpus_10.branchPred.BTBHits            0                       # Number of BTB hits
system.switch_cpus_10.branchPred.BTBLookups     14735557                       # Number of BTB lookups
system.switch_cpus_10.branchPred.RASInCorrect            1                       # Number of incorrect RAS predictions.
system.switch_cpus_10.branchPred.condIncorrect      1104294                       # Number of conditional branches incorrect
system.switch_cpus_10.branchPred.condPredicted     15657151                       # Number of conditional branches predicted
system.switch_cpus_10.branchPred.indirectHits      5426038                       # Number of indirect target hits.
system.switch_cpus_10.branchPred.indirectLookups     14735557                       # Number of indirect predictor lookups.
system.switch_cpus_10.branchPred.indirectMisses      9309519                       # Number of indirect misses.
system.switch_cpus_10.branchPred.lookups     17275559                       # Number of BP lookups
system.switch_cpus_10.branchPred.usedRAS       635245                       # Number of times the RAS was used to get a target.
system.switch_cpus_10.branchPredindirectMispredicted       933352                       # Number of mispredicted indirect branches.
system.switch_cpus_10.cc_regfile_reads       69278566                       # number of cc regfile reads
system.switch_cpus_10.cc_regfile_writes      35111806                       # number of cc regfile writes
system.switch_cpus_10.commit.amos                   0                       # Number of atomic instructions committed
system.switch_cpus_10.commit.branchMispredicts      1104294                       # The number of times a branch was mispredicted
system.switch_cpus_10.commit.branches        11781138                       # Number of branches committed
system.switch_cpus_10.commit.bw_lim_events      4685066                       # number cycles where commit BW limit reached
system.switch_cpus_10.commit.commitNonSpecStalls           59                       # The number of times commit has been forced to stall to communicate backwards
system.switch_cpus_10.commit.commitSquashedInsts     25421745                       # The number of squashed insts skipped by commit
system.switch_cpus_10.commit.committedInsts     50000000                       # Number of instructions committed
system.switch_cpus_10.commit.committedOps     95583258                       # Number of ops (including micro ops) committed
system.switch_cpus_10.commit.committed_per_cycle::samples     42217563                       # Number of insts commited each cycle
system.switch_cpus_10.commit.committed_per_cycle::mean     2.264064                       # Number of insts commited each cycle
system.switch_cpus_10.commit.committed_per_cycle::stdev     2.667028                       # Number of insts commited each cycle
system.switch_cpus_10.commit.committed_per_cycle::underflows            0      0.00%      0.00% # Number of insts commited each cycle
system.switch_cpus_10.commit.committed_per_cycle::0     15389431     36.45%     36.45% # Number of insts commited each cycle
system.switch_cpus_10.commit.committed_per_cycle::1      7999094     18.95%     55.40% # Number of insts commited each cycle
system.switch_cpus_10.commit.committed_per_cycle::2      3432159      8.13%     63.53% # Number of insts commited each cycle
system.switch_cpus_10.commit.committed_per_cycle::3      5834794     13.82%     77.35% # Number of insts commited each cycle
system.switch_cpus_10.commit.committed_per_cycle::4      1744711      4.13%     81.48% # Number of insts commited each cycle
system.switch_cpus_10.commit.committed_per_cycle::5      1214519      2.88%     84.36% # Number of insts commited each cycle
system.switch_cpus_10.commit.committed_per_cycle::6       741026      1.76%     86.12% # Number of insts commited each cycle
system.switch_cpus_10.commit.committed_per_cycle::7      1176763      2.79%     88.90% # Number of insts commited each cycle
system.switch_cpus_10.commit.committed_per_cycle::8      4685066     11.10%    100.00% # Number of insts commited each cycle
system.switch_cpus_10.commit.committed_per_cycle::overflows            0      0.00%    100.00% # Number of insts commited each cycle
system.switch_cpus_10.commit.committed_per_cycle::min_value            0                       # Number of insts commited each cycle
system.switch_cpus_10.commit.committed_per_cycle::max_value            8                       # Number of insts commited each cycle
system.switch_cpus_10.commit.committed_per_cycle::total     42217563                       # Number of insts commited each cycle
system.switch_cpus_10.commit.fp_insts          808987                       # Number of committed floating point instructions.
system.switch_cpus_10.commit.function_calls       486991                       # Number of function calls committed.
system.switch_cpus_10.commit.int_insts       94788152                       # Number of committed integer instructions.
system.switch_cpus_10.commit.loads           11147624                       # Number of loads committed
system.switch_cpus_10.commit.membars                0                       # Number of memory barriers committed
system.switch_cpus_10.commit.op_class_0::No_OpClass       402798      0.42%      0.42% # Class of committed instruction
system.switch_cpus_10.commit.op_class_0::IntAlu     75959045     79.47%     79.89% # Class of committed instruction
system.switch_cpus_10.commit.op_class_0::IntMult        45398      0.05%     79.94% # Class of committed instruction
system.switch_cpus_10.commit.op_class_0::IntDiv       881658      0.92%     80.86% # Class of committed instruction
system.switch_cpus_10.commit.op_class_0::FloatAdd        77524      0.08%     80.94% # Class of committed instruction
system.switch_cpus_10.commit.op_class_0::FloatCmp            0      0.00%     80.94% # Class of committed instruction
system.switch_cpus_10.commit.op_class_0::FloatCvt            0      0.00%     80.94% # Class of committed instruction
system.switch_cpus_10.commit.op_class_0::FloatMult            0      0.00%     80.94% # Class of committed instruction
system.switch_cpus_10.commit.op_class_0::FloatMultAcc            0      0.00%     80.94% # Class of committed instruction
system.switch_cpus_10.commit.op_class_0::FloatDiv            0      0.00%     80.94% # Class of committed instruction
system.switch_cpus_10.commit.op_class_0::FloatMisc            0      0.00%     80.94% # Class of committed instruction
system.switch_cpus_10.commit.op_class_0::FloatSqrt            0      0.00%     80.94% # Class of committed instruction
system.switch_cpus_10.commit.op_class_0::SimdAdd            6      0.00%     80.94% # Class of committed instruction
system.switch_cpus_10.commit.op_class_0::SimdAddAcc            0      0.00%     80.94% # Class of committed instruction
system.switch_cpus_10.commit.op_class_0::SimdAlu       223358      0.23%     81.18% # Class of committed instruction
system.switch_cpus_10.commit.op_class_0::SimdCmp            0      0.00%     81.18% # Class of committed instruction
system.switch_cpus_10.commit.op_class_0::SimdCvt        52156      0.05%     81.23% # Class of committed instruction
system.switch_cpus_10.commit.op_class_0::SimdMisc        52150      0.05%     81.28% # Class of committed instruction
system.switch_cpus_10.commit.op_class_0::SimdMult            0      0.00%     81.28% # Class of committed instruction
system.switch_cpus_10.commit.op_class_0::SimdMultAcc            0      0.00%     81.28% # Class of committed instruction
system.switch_cpus_10.commit.op_class_0::SimdShift            7      0.00%     81.28% # Class of committed instruction
system.switch_cpus_10.commit.op_class_0::SimdShiftAcc            0      0.00%     81.28% # Class of committed instruction
system.switch_cpus_10.commit.op_class_0::SimdDiv            0      0.00%     81.28% # Class of committed instruction
system.switch_cpus_10.commit.op_class_0::SimdSqrt            0      0.00%     81.28% # Class of committed instruction
system.switch_cpus_10.commit.op_class_0::SimdFloatAdd        25382      0.03%     81.31% # Class of committed instruction
system.switch_cpus_10.commit.op_class_0::SimdFloatAlu            0      0.00%     81.31% # Class of committed instruction
system.switch_cpus_10.commit.op_class_0::SimdFloatCmp            0      0.00%     81.31% # Class of committed instruction
system.switch_cpus_10.commit.op_class_0::SimdFloatCvt            0      0.00%     81.31% # Class of committed instruction
system.switch_cpus_10.commit.op_class_0::SimdFloatDiv            0      0.00%     81.31% # Class of committed instruction
system.switch_cpus_10.commit.op_class_0::SimdFloatMisc            0      0.00%     81.31% # Class of committed instruction
system.switch_cpus_10.commit.op_class_0::SimdFloatMult            0      0.00%     81.31% # Class of committed instruction
system.switch_cpus_10.commit.op_class_0::SimdFloatMultAcc            0      0.00%     81.31% # Class of committed instruction
system.switch_cpus_10.commit.op_class_0::SimdFloatSqrt            0      0.00%     81.31% # Class of committed instruction
system.switch_cpus_10.commit.op_class_0::SimdReduceAdd            0      0.00%     81.31% # Class of committed instruction
system.switch_cpus_10.commit.op_class_0::SimdReduceAlu            0      0.00%     81.31% # Class of committed instruction
system.switch_cpus_10.commit.op_class_0::SimdReduceCmp            0      0.00%     81.31% # Class of committed instruction
system.switch_cpus_10.commit.op_class_0::SimdFloatReduceAdd            0      0.00%     81.31% # Class of committed instruction
system.switch_cpus_10.commit.op_class_0::SimdFloatReduceCmp            0      0.00%     81.31% # Class of committed instruction
system.switch_cpus_10.commit.op_class_0::SimdAes            0      0.00%     81.31% # Class of committed instruction
system.switch_cpus_10.commit.op_class_0::SimdAesMix            0      0.00%     81.31% # Class of committed instruction
system.switch_cpus_10.commit.op_class_0::SimdSha1Hash            0      0.00%     81.31% # Class of committed instruction
system.switch_cpus_10.commit.op_class_0::SimdSha1Hash2            0      0.00%     81.31% # Class of committed instruction
system.switch_cpus_10.commit.op_class_0::SimdSha256Hash            0      0.00%     81.31% # Class of committed instruction
system.switch_cpus_10.commit.op_class_0::SimdSha256Hash2            0      0.00%     81.31% # Class of committed instruction
system.switch_cpus_10.commit.op_class_0::SimdShaSigma2            0      0.00%     81.31% # Class of committed instruction
system.switch_cpus_10.commit.op_class_0::SimdShaSigma3            0      0.00%     81.31% # Class of committed instruction
system.switch_cpus_10.commit.op_class_0::SimdPredAlu            0      0.00%     81.31% # Class of committed instruction
system.switch_cpus_10.commit.op_class_0::MemRead     10899576     11.40%     92.71% # Class of committed instruction
system.switch_cpus_10.commit.op_class_0::MemWrite      6585798      6.89%     99.60% # Class of committed instruction
system.switch_cpus_10.commit.op_class_0::FloatMemRead       248048      0.26%     99.86% # Class of committed instruction
system.switch_cpus_10.commit.op_class_0::FloatMemWrite       130354      0.14%    100.00% # Class of committed instruction
system.switch_cpus_10.commit.op_class_0::IprAccess            0      0.00%    100.00% # Class of committed instruction
system.switch_cpus_10.commit.op_class_0::InstPrefetch            0      0.00%    100.00% # Class of committed instruction
system.switch_cpus_10.commit.op_class_0::total     95583258                       # Class of committed instruction
system.switch_cpus_10.commit.refs            17863776                       # Number of memory references committed
system.switch_cpus_10.commit.swp_count              0                       # Number of s/w prefetches committed
system.switch_cpus_10.commit.vec_insts              0                       # Number of committed Vector instructions.
system.switch_cpus_10.committedInsts         50000000                       # Number of Instructions Simulated
system.switch_cpus_10.committedOps           95583258                       # Number of Ops (including micro ops) Simulated
system.switch_cpus_10.cpi                    0.920415                       # CPI: Cycles Per Instruction
system.switch_cpus_10.cpi_total              0.920415                       # CPI: Total CPI of All Threads
system.switch_cpus_10.decode.BlockedCycles      3742457                       # Number of cycles decode is blocked
system.switch_cpus_10.decode.DecodedInsts    134999707                       # Number of instructions handled by decode
system.switch_cpus_10.decode.IdleCycles      20059916                       # Number of cycles decode is idle
system.switch_cpus_10.decode.RunCycles       20988179                       # Number of cycles decode is running
system.switch_cpus_10.decode.SquashCycles      1104744                       # Number of cycles decode is squashing
system.switch_cpus_10.decode.UnblockCycles       110057                       # Number of cycles decode is unblocking
system.switch_cpus_10.dtb.rdAccesses         13081618                       # TLB accesses on read requests
system.switch_cpus_10.dtb.rdMisses                203                       # TLB misses on read requests
system.switch_cpus_10.dtb.wrAccesses          7426776                       # TLB accesses on write requests
system.switch_cpus_10.dtb.wrMisses                 68                       # TLB misses on write requests
system.switch_cpus_10.fetch.Branches         17275559                       # Number of branches that fetch encountered
system.switch_cpus_10.fetch.CacheLines       10532597                       # Number of cache lines fetched
system.switch_cpus_10.fetch.Cycles           23583698                       # Number of cycles fetch has run and was not squashing or blocked
system.switch_cpus_10.fetch.IcacheSquashes       481232                       # Number of outstanding Icache misses that were squashed
system.switch_cpus_10.fetch.IcacheWaitRetryStallCycles          835                       # Number of stall cycles due to full MSHR
system.switch_cpus_10.fetch.Insts            72857482                       # Number of instructions fetch has processed
system.switch_cpus_10.fetch.MiscStallCycles          547                       # Number of cycles fetch has spent waiting on interrupts, or bad addresses, or out of MSHRs
system.switch_cpus_10.fetch.SquashCycles      2209488                       # Number of cycles fetch has spent squashing
system.switch_cpus_10.fetch.branchRate       0.375386                       # Number of branch fetches per cycle
system.switch_cpus_10.fetch.icacheStallCycles     21315534                       # Number of cycles fetch is stalled on an Icache miss
system.switch_cpus_10.fetch.predictedBranches      6061283                       # Number of branches that fetch has predicted taken
system.switch_cpus_10.fetch.rate             1.583144                       # Number of inst fetches per cycle
system.switch_cpus_10.fetch.rateDist::samples     46005358                       # Number of instructions fetched each cycle (Total)
system.switch_cpus_10.fetch.rateDist::mean     3.037428                       # Number of instructions fetched each cycle (Total)
system.switch_cpus_10.fetch.rateDist::stdev     3.544419                       # Number of instructions fetched each cycle (Total)
system.switch_cpus_10.fetch.rateDist::underflows            0      0.00%      0.00% # Number of instructions fetched each cycle (Total)
system.switch_cpus_10.fetch.rateDist::0      23810088     51.76%     51.76% # Number of instructions fetched each cycle (Total)
system.switch_cpus_10.fetch.rateDist::1       1012959      2.20%     53.96% # Number of instructions fetched each cycle (Total)
system.switch_cpus_10.fetch.rateDist::2       1537038      3.34%     57.30% # Number of instructions fetched each cycle (Total)
system.switch_cpus_10.fetch.rateDist::3       1758073      3.82%     61.12% # Number of instructions fetched each cycle (Total)
system.switch_cpus_10.fetch.rateDist::4       1047805      2.28%     63.40% # Number of instructions fetched each cycle (Total)
system.switch_cpus_10.fetch.rateDist::5       1725134      3.75%     67.15% # Number of instructions fetched each cycle (Total)
system.switch_cpus_10.fetch.rateDist::6       1264767      2.75%     69.90% # Number of instructions fetched each cycle (Total)
system.switch_cpus_10.fetch.rateDist::7        824754      1.79%     71.69% # Number of instructions fetched each cycle (Total)
system.switch_cpus_10.fetch.rateDist::8      13024740     28.31%    100.00% # Number of instructions fetched each cycle (Total)
system.switch_cpus_10.fetch.rateDist::overflows            0      0.00%    100.00% # Number of instructions fetched each cycle (Total)
system.switch_cpus_10.fetch.rateDist::min_value            0                       # Number of instructions fetched each cycle (Total)
system.switch_cpus_10.fetch.rateDist::max_value            8                       # Number of instructions fetched each cycle (Total)
system.switch_cpus_10.fetch.rateDist::total     46005358                       # Number of instructions fetched each cycle (Total)
system.switch_cpus_10.fp_regfile_reads         944761                       # number of floating regfile reads
system.switch_cpus_10.fp_regfile_writes        736502                       # number of floating regfile writes
system.switch_cpus_10.idleCycles                15392                       # Total number of cycles that the CPU has spent unscheduled due to idling
system.switch_cpus_10.iew.branchMispredicts      1517444                       # Number of branch mispredicts detected at execute
system.switch_cpus_10.iew.exec_branches      13154692                       # Number of branches executed
system.switch_cpus_10.iew.exec_nop                  0                       # number of nop insts executed
system.switch_cpus_10.iew.exec_rate          2.416408                       # Inst execution rate
system.switch_cpus_10.iew.exec_refs          20482344                       # number of memory reference insts executed
system.switch_cpus_10.iew.exec_stores         7426776                       # Number of stores executed
system.switch_cpus_10.iew.exec_swp                  0                       # number of swp insts executed
system.switch_cpus_10.iew.iewBlockCycles      2683064                       # Number of cycles IEW is blocking
system.switch_cpus_10.iew.iewDispLoadInsts     14078421                       # Number of dispatched load instructions
system.switch_cpus_10.iew.iewDispNonSpecInsts        36284                       # Number of dispatched non-speculative instructions
system.switch_cpus_10.iew.iewDispSquashedInsts       494030                       # Number of squashed instructions skipped by dispatch
system.switch_cpus_10.iew.iewDispStoreInsts      8319991                       # Number of dispatched store instructions
system.switch_cpus_10.iew.iewDispatchedInsts    121005001                       # Number of instructions dispatched to IQ
system.switch_cpus_10.iew.iewExecLoadInsts     13055568                       # Number of load instructions executed
system.switch_cpus_10.iew.iewExecSquashedInsts      2310386                       # Number of squashed instructions skipped in execute
system.switch_cpus_10.iew.iewExecutedInsts    111204909                       # Number of executed instructions
system.switch_cpus_10.iew.iewIQFullEvents            3                       # Number of times the IQ has become full, causing a stall
system.switch_cpus_10.iew.iewIdleCycles             0                       # Number of cycles IEW is idle
system.switch_cpus_10.iew.iewLSQFullEvents         9983                       # Number of times the LSQ has become full, causing a stall
system.switch_cpus_10.iew.iewSquashCycles      1104744                       # Number of cycles IEW is squashing
system.switch_cpus_10.iew.iewUnblockCycles         9986                       # Number of cycles IEW is unblocking
system.switch_cpus_10.iew.lsq.thread0.blockedLoads            0                       # Number of blocked loads due to partial load-store forwarding
system.switch_cpus_10.iew.lsq.thread0.cacheBlocked            9                       # Number of times an access to memory failed due to the cache being blocked
system.switch_cpus_10.iew.lsq.thread0.forwLoads      1785408                       # Number of loads that had data forwarded from stores
system.switch_cpus_10.iew.lsq.thread0.ignoredResponses        11172                       # Number of memory responses ignored because the instruction is squashed
system.switch_cpus_10.iew.lsq.thread0.invAddrLoads            0                       # Number of loads ignored due to an invalid address
system.switch_cpus_10.iew.lsq.thread0.invAddrSwpfs            0                       # Number of software prefetches ignored due to an invalid address
system.switch_cpus_10.iew.lsq.thread0.memOrderViolation         2663                       # Number of memory ordering violations
system.switch_cpus_10.iew.lsq.thread0.rescheduledLoads        26061                       # Number of loads that were rescheduled
system.switch_cpus_10.iew.lsq.thread0.squashedLoads      2930797                       # Number of loads squashed
system.switch_cpus_10.iew.lsq.thread0.squashedStores      1603839                       # Number of stores squashed
system.switch_cpus_10.iew.memOrderViolationEvents         2663                       # Number of memory order violations
system.switch_cpus_10.iew.predictedNotTakenIncorrect      1414889                       # Number of branches that were predicted not taken incorrectly
system.switch_cpus_10.iew.predictedTakenIncorrect       102555                       # Number of branches that were predicted taken incorrectly
system.switch_cpus_10.iew.wb_consumers      125558142                       # num instructions consuming a value
system.switch_cpus_10.iew.wb_count          110182663                       # cumulative count of insts written-back
system.switch_cpus_10.iew.wb_fanout          0.628194                       # average fanout of values written-back
system.switch_cpus_10.iew.wb_producers       78874890                       # num instructions producing a value
system.switch_cpus_10.iew.wb_rate            2.394195                       # insts written-back per cycle
system.switch_cpus_10.iew.wb_sent           110371239                       # cumulative count of insts sent to commit
system.switch_cpus_10.int_regfile_reads     165397537                       # number of integer regfile reads
system.switch_cpus_10.int_regfile_writes     90524387                       # number of integer regfile writes
system.switch_cpus_10.ipc                    1.086466                       # IPC: Instructions Per Cycle
system.switch_cpus_10.ipc_total              1.086466                       # IPC: Total IPC of All Threads
system.switch_cpus_10.iq.FU_type_0::No_OpClass       698452      0.62%      0.62% # Type of FU issued
system.switch_cpus_10.iq.FU_type_0::IntAlu     90162778     79.43%     80.04% # Type of FU issued
system.switch_cpus_10.iq.FU_type_0::IntMult        46039      0.04%     80.08% # Type of FU issued
system.switch_cpus_10.iq.FU_type_0::IntDiv       953253      0.84%     80.92% # Type of FU issued
system.switch_cpus_10.iq.FU_type_0::FloatAdd       132285      0.12%     81.04% # Type of FU issued
system.switch_cpus_10.iq.FU_type_0::FloatCmp            0      0.00%     81.04% # Type of FU issued
system.switch_cpus_10.iq.FU_type_0::FloatCvt            0      0.00%     81.04% # Type of FU issued
system.switch_cpus_10.iq.FU_type_0::FloatMult            0      0.00%     81.04% # Type of FU issued
system.switch_cpus_10.iq.FU_type_0::FloatMultAcc            0      0.00%     81.04% # Type of FU issued
system.switch_cpus_10.iq.FU_type_0::FloatDiv            0      0.00%     81.04% # Type of FU issued
system.switch_cpus_10.iq.FU_type_0::FloatMisc            0      0.00%     81.04% # Type of FU issued
system.switch_cpus_10.iq.FU_type_0::FloatSqrt            0      0.00%     81.04% # Type of FU issued
system.switch_cpus_10.iq.FU_type_0::SimdAdd           12      0.00%     81.04% # Type of FU issued
system.switch_cpus_10.iq.FU_type_0::SimdAddAcc            0      0.00%     81.04% # Type of FU issued
system.switch_cpus_10.iq.FU_type_0::SimdAlu       256786      0.23%     81.27% # Type of FU issued
system.switch_cpus_10.iq.FU_type_0::SimdCmp            0      0.00%     81.27% # Type of FU issued
system.switch_cpus_10.iq.FU_type_0::SimdCvt        52171      0.05%     81.31% # Type of FU issued
system.switch_cpus_10.iq.FU_type_0::SimdMisc        52156      0.05%     81.36% # Type of FU issued
system.switch_cpus_10.iq.FU_type_0::SimdMult            0      0.00%     81.36% # Type of FU issued
system.switch_cpus_10.iq.FU_type_0::SimdMultAcc            0      0.00%     81.36% # Type of FU issued
system.switch_cpus_10.iq.FU_type_0::SimdShift           21      0.00%     81.36% # Type of FU issued
system.switch_cpus_10.iq.FU_type_0::SimdShiftAcc            0      0.00%     81.36% # Type of FU issued
system.switch_cpus_10.iq.FU_type_0::SimdDiv            0      0.00%     81.36% # Type of FU issued
system.switch_cpus_10.iq.FU_type_0::SimdSqrt            0      0.00%     81.36% # Type of FU issued
system.switch_cpus_10.iq.FU_type_0::SimdFloatAdd        25382      0.02%     81.38% # Type of FU issued
system.switch_cpus_10.iq.FU_type_0::SimdFloatAlu            0      0.00%     81.38% # Type of FU issued
system.switch_cpus_10.iq.FU_type_0::SimdFloatCmp            0      0.00%     81.38% # Type of FU issued
system.switch_cpus_10.iq.FU_type_0::SimdFloatCvt            0      0.00%     81.38% # Type of FU issued
system.switch_cpus_10.iq.FU_type_0::SimdFloatDiv            0      0.00%     81.38% # Type of FU issued
system.switch_cpus_10.iq.FU_type_0::SimdFloatMisc            0      0.00%     81.38% # Type of FU issued
system.switch_cpus_10.iq.FU_type_0::SimdFloatMult           91      0.00%     81.38% # Type of FU issued
system.switch_cpus_10.iq.FU_type_0::SimdFloatMultAcc            0      0.00%     81.38% # Type of FU issued
system.switch_cpus_10.iq.FU_type_0::SimdFloatSqrt            0      0.00%     81.38% # Type of FU issued
system.switch_cpus_10.iq.FU_type_0::SimdReduceAdd            0      0.00%     81.38% # Type of FU issued
system.switch_cpus_10.iq.FU_type_0::SimdReduceAlu            0      0.00%     81.38% # Type of FU issued
system.switch_cpus_10.iq.FU_type_0::SimdReduceCmp            0      0.00%     81.38% # Type of FU issued
system.switch_cpus_10.iq.FU_type_0::SimdFloatReduceAdd            0      0.00%     81.38% # Type of FU issued
system.switch_cpus_10.iq.FU_type_0::SimdFloatReduceCmp            0      0.00%     81.38% # Type of FU issued
system.switch_cpus_10.iq.FU_type_0::SimdAes            0      0.00%     81.38% # Type of FU issued
system.switch_cpus_10.iq.FU_type_0::SimdAesMix            0      0.00%     81.38% # Type of FU issued
system.switch_cpus_10.iq.FU_type_0::SimdSha1Hash            0      0.00%     81.38% # Type of FU issued
system.switch_cpus_10.iq.FU_type_0::SimdSha1Hash2            0      0.00%     81.38% # Type of FU issued
system.switch_cpus_10.iq.FU_type_0::SimdSha256Hash            0      0.00%     81.38% # Type of FU issued
system.switch_cpus_10.iq.FU_type_0::SimdSha256Hash2            0      0.00%     81.38% # Type of FU issued
system.switch_cpus_10.iq.FU_type_0::SimdShaSigma2            0      0.00%     81.38% # Type of FU issued
system.switch_cpus_10.iq.FU_type_0::SimdShaSigma3            0      0.00%     81.38% # Type of FU issued
system.switch_cpus_10.iq.FU_type_0::SimdPredAlu            0      0.00%     81.38% # Type of FU issued
system.switch_cpus_10.iq.FU_type_0::MemRead     13016961     11.47%     92.85% # Type of FU issued
system.switch_cpus_10.iq.FU_type_0::MemWrite      7549872      6.65%     99.50% # Type of FU issued
system.switch_cpus_10.iq.FU_type_0::FloatMemRead       404358      0.36%     99.85% # Type of FU issued
system.switch_cpus_10.iq.FU_type_0::FloatMemWrite       164678      0.15%    100.00% # Type of FU issued
system.switch_cpus_10.iq.FU_type_0::IprAccess            0      0.00%    100.00% # Type of FU issued
system.switch_cpus_10.iq.FU_type_0::InstPrefetch            0      0.00%    100.00% # Type of FU issued
system.switch_cpus_10.iq.FU_type_0::total    113515295                       # Type of FU issued
system.switch_cpus_10.iq.fp_alu_accesses      1122163                       # Number of floating point alu accesses
system.switch_cpus_10.iq.fp_inst_queue_reads      2225826                       # Number of floating instruction queue reads
system.switch_cpus_10.iq.fp_inst_queue_wakeup_accesses       917668                       # Number of floating instruction queue wakeup accesses
system.switch_cpus_10.iq.fp_inst_queue_writes      1633321                       # Number of floating instruction queue writes
system.switch_cpus_10.iq.fu_busy_cnt          1402094                       # FU busy when requested
system.switch_cpus_10.iq.fu_busy_rate        0.012352                       # FU busy rate (busy events/executed inst)
system.switch_cpus_10.iq.fu_full::No_OpClass            0      0.00%      0.00% # attempts to use FU when none available
system.switch_cpus_10.iq.fu_full::IntAlu      1300967     92.79%     92.79% # attempts to use FU when none available
system.switch_cpus_10.iq.fu_full::IntMult            0      0.00%     92.79% # attempts to use FU when none available
system.switch_cpus_10.iq.fu_full::IntDiv            0      0.00%     92.79% # attempts to use FU when none available
system.switch_cpus_10.iq.fu_full::FloatAdd            0      0.00%     92.79% # attempts to use FU when none available
system.switch_cpus_10.iq.fu_full::FloatCmp            0      0.00%     92.79% # attempts to use FU when none available
system.switch_cpus_10.iq.fu_full::FloatCvt            0      0.00%     92.79% # attempts to use FU when none available
system.switch_cpus_10.iq.fu_full::FloatMult            0      0.00%     92.79% # attempts to use FU when none available
system.switch_cpus_10.iq.fu_full::FloatMultAcc            0      0.00%     92.79% # attempts to use FU when none available
system.switch_cpus_10.iq.fu_full::FloatDiv            0      0.00%     92.79% # attempts to use FU when none available
system.switch_cpus_10.iq.fu_full::FloatMisc            0      0.00%     92.79% # attempts to use FU when none available
system.switch_cpus_10.iq.fu_full::FloatSqrt            0      0.00%     92.79% # attempts to use FU when none available
system.switch_cpus_10.iq.fu_full::SimdAdd            0      0.00%     92.79% # attempts to use FU when none available
system.switch_cpus_10.iq.fu_full::SimdAddAcc            0      0.00%     92.79% # attempts to use FU when none available
system.switch_cpus_10.iq.fu_full::SimdAlu        26072      1.86%     94.65% # attempts to use FU when none available
system.switch_cpus_10.iq.fu_full::SimdCmp            0      0.00%     94.65% # attempts to use FU when none available
system.switch_cpus_10.iq.fu_full::SimdCvt            0      0.00%     94.65% # attempts to use FU when none available
system.switch_cpus_10.iq.fu_full::SimdMisc            0      0.00%     94.65% # attempts to use FU when none available
system.switch_cpus_10.iq.fu_full::SimdMult            0      0.00%     94.65% # attempts to use FU when none available
system.switch_cpus_10.iq.fu_full::SimdMultAcc            0      0.00%     94.65% # attempts to use FU when none available
system.switch_cpus_10.iq.fu_full::SimdShift            0      0.00%     94.65% # attempts to use FU when none available
system.switch_cpus_10.iq.fu_full::SimdShiftAcc            0      0.00%     94.65% # attempts to use FU when none available
system.switch_cpus_10.iq.fu_full::SimdDiv            0      0.00%     94.65% # attempts to use FU when none available
system.switch_cpus_10.iq.fu_full::SimdSqrt            0      0.00%     94.65% # attempts to use FU when none available
system.switch_cpus_10.iq.fu_full::SimdFloatAdd            0      0.00%     94.65% # attempts to use FU when none available
system.switch_cpus_10.iq.fu_full::SimdFloatAlu            0      0.00%     94.65% # attempts to use FU when none available
system.switch_cpus_10.iq.fu_full::SimdFloatCmp            0      0.00%     94.65% # attempts to use FU when none available
system.switch_cpus_10.iq.fu_full::SimdFloatCvt            0      0.00%     94.65% # attempts to use FU when none available
system.switch_cpus_10.iq.fu_full::SimdFloatDiv            0      0.00%     94.65% # attempts to use FU when none available
system.switch_cpus_10.iq.fu_full::SimdFloatMisc            0      0.00%     94.65% # attempts to use FU when none available
system.switch_cpus_10.iq.fu_full::SimdFloatMult            0      0.00%     94.65% # attempts to use FU when none available
[...]
system.cpu1.l2cache.ReadSharedReq_avg_miss_latency::total 121965.377026                       # average ReadSharedReq miss latency
system.cpu1.l2cache.ReadSharedReq_mshr_misses::.switch_cpus1.data         1153                       # number of ReadSharedReq MSHR misses
system.cpu1.l2cache.ReadSharedReq_mshr_misses::.switch_cpus_11.data        22352                       # number of ReadSharedReq MSHR misses
system.cpu1.l2cache.ReadSharedReq_mshr_misses::total        23505                       # number of ReadSharedReq MSHR misses
system.cpu1.l2cache.ReadSharedReq_mshr_miss_latency::.switch_cpus1.data    143520558                       # number of ReadSharedReq MSHR miss cycles
system.cpu1.l2cache.ReadSharedReq_mshr_miss_latency::.switch_cpus_11.data   2713474044                       # number of ReadSharedReq MSHR miss cycles
system.cpu1.l2cache.ReadSharedReq_mshr_miss_latency::total   2856994602                       # number of ReadSharedReq MSHR miss cycles
system.cpu1.l2cache.ReadSharedReq_mshr_miss_rate::.switch_cpus1.data     0.942764                       # mshr miss rate for ReadSharedReq accesses
system.cpu1.l2cache.ReadSharedReq_mshr_miss_rate::.switch_cpus_11.data     0.522646                       # mshr miss rate for ReadSharedReq accesses
system.cpu1.l2cache.ReadSharedReq_mshr_miss_rate::total     0.534326                       # mshr miss rate for ReadSharedReq accesses
system.cpu1.l2cache.ReadSharedReq_avg_mshr_miss_latency::.switch_cpus1.data 124475.765828                       # average ReadSharedReq mshr miss latency
system.cpu1.l2cache.ReadSharedReq_avg_mshr_miss_latency::.switch_cpus_11.data 121397.371331                       # average ReadSharedReq mshr miss latency
system.cpu1.l2cache.ReadSharedReq_avg_mshr_miss_latency::total 121548.377026                       # average ReadSharedReq mshr miss latency
system.cpu1.l2cache.tags.pwrStateResidencyTicks::UNDEFINED 1314743800944                       # Cumulative time (in ticks) in various power states
system.cpu1.l2cache.tags.tagsinuse          58.959950                       # Cycle average of tags in use
system.cpu1.l2cache.tags.total_refs             87956                       # Total number of references to valid blocks.
system.cpu1.l2cache.tags.sampled_refs           23815                       # Sample count of references to valid blocks.
system.cpu1.l2cache.tags.avg_refs            3.693303                       # Average number of references to valid blocks.
system.cpu1.l2cache.tags.warmup_cycle    1293351708033                       # Cycle when the warmup percentage was hit.
system.cpu1.l2cache.tags.occ_blocks::.cpu1.inst     0.003686                       # Average occupied blocks per requestor
system.cpu1.l2cache.tags.occ_blocks::.cpu1.data     0.016271                       # Average occupied blocks per requestor
system.cpu1.l2cache.tags.occ_blocks::.switch_cpus1.inst     0.682791                       # Average occupied blocks per requestor
system.cpu1.l2cache.tags.occ_blocks::.switch_cpus1.data     8.888520                       # Average occupied blocks per requestor
system.cpu1.l2cache.tags.occ_blocks::.switch_cpus_11.inst     0.184936                       # Average occupied blocks per requestor
system.cpu1.l2cache.tags.occ_blocks::.switch_cpus_11.data    49.183747                       # Average occupied blocks per requestor
system.cpu1.l2cache.tags.occ_percent::.cpu1.inst     0.000001                       # Average percentage of cache occupancy
system.cpu1.l2cache.tags.occ_percent::.cpu1.data     0.000004                       # Average percentage of cache occupancy
system.cpu1.l2cache.tags.occ_percent::.switch_cpus1.inst     0.000167                       # Average percentage of cache occupancy
system.cpu1.l2cache.tags.occ_percent::.switch_cpus1.data     0.002170                       # Average percentage of cache occupancy
system.cpu1.l2cache.tags.occ_percent::.switch_cpus_11.inst     0.000045                       # Average percentage of cache occupancy
system.cpu1.l2cache.tags.occ_percent::.switch_cpus_11.data     0.012008                       # Average percentage of cache occupancy
system.cpu1.l2cache.tags.occ_percent::total     0.014395                       # Average percentage of cache occupancy
system.cpu1.l2cache.tags.occ_task_id_blocks::1024         4096                       # Occupied blocks per task id
system.cpu1.l2cache.tags.age_task_id_blocks_1024::0           13                       # Occupied blocks per task id
system.cpu1.l2cache.tags.age_task_id_blocks_1024::1           84                       # Occupied blocks per task id
system.cpu1.l2cache.tags.age_task_id_blocks_1024::2          659                       # Occupied blocks per task id
system.cpu1.l2cache.tags.age_task_id_blocks_1024::3         2832                       # Occupied blocks per task id
system.cpu1.l2cache.tags.age_task_id_blocks_1024::4          508                       # Occupied blocks per task id
system.cpu1.l2cache.tags.occ_task_id_percent::1024            1                       # Percentage of cache occupancy per task id
system.cpu1.l2cache.tags.tag_accesses         1431175                       # Number of tag accesses
system.cpu1.l2cache.tags.data_accesses        1431175                       # Number of data accesses
system.cpu1.toL2Bus.pwrStateResidencyTicks::UNDEFINED 1314743800944                       # Cumulative time (in ticks) in various power states
system.cpu1.toL2Bus.trans_dist::ReadResp        44275                       # Transaction distribution
system.cpu1.toL2Bus.trans_dist::WritebackDirty          144                       # Transaction distribution
system.cpu1.toL2Bus.trans_dist::CleanEvict        63176                       # Transaction distribution
system.cpu1.toL2Bus.trans_dist::ReadExReq          121                       # Transaction distribution
system.cpu1.toL2Bus.trans_dist::ReadExResp          121                       # Transaction distribution
system.cpu1.toL2Bus.trans_dist::ReadCleanReq          285                       # Transaction distribution
system.cpu1.toL2Bus.trans_dist::ReadSharedReq        43990                       # Transaction distribution
system.cpu1.toL2Bus.pkt_count_system.cpu1.icache.mem_side::system.cpu1.l2cache.cpu_side          570                       # Packet count per connected master and slave (bytes)
system.cpu1.toL2Bus.pkt_count_system.cpu1.dcache.mem_side::system.cpu1.l2cache.cpu_side       131821                       # Packet count per connected master and slave (bytes)
system.cpu1.toL2Bus.pkt_count::total           132391                       # Packet count per connected master and slave (bytes)
system.cpu1.toL2Bus.pkt_size_system.cpu1.icache.mem_side::system.cpu1.l2cache.cpu_side        18240                       # Cumulative packet size per connected master and slave (bytes)
system.cpu1.toL2Bus.pkt_size_system.cpu1.dcache.mem_side::system.cpu1.l2cache.cpu_side      2831872                       # Cumulative packet size per connected master and slave (bytes)
system.cpu1.toL2Bus.pkt_size::total           2850112                       # Cumulative packet size per connected master and slave (bytes)
system.cpu1.toL2Bus.snoops                      19721                       # Total snoops (count)
system.cpu1.toL2Bus.snoopTraffic                  448                       # Total snoop traffic (bytes)
system.cpu1.toL2Bus.snoop_fanout::samples        64117                       # Request fanout histogram
system.cpu1.toL2Bus.snoop_fanout::mean       0.005740                       # Request fanout histogram
system.cpu1.toL2Bus.snoop_fanout::stdev      0.075542                       # Request fanout histogram
system.cpu1.toL2Bus.snoop_fanout::underflows            0      0.00%      0.00% # Request fanout histogram
system.cpu1.toL2Bus.snoop_fanout::0             63749     99.43%     99.43% # Request fanout histogram
system.cpu1.toL2Bus.snoop_fanout::1               368      0.57%    100.00% # Request fanout histogram
system.cpu1.toL2Bus.snoop_fanout::2                 0      0.00%    100.00% # Request fanout histogram
system.cpu1.toL2Bus.snoop_fanout::3                 0      0.00%    100.00% # Request fanout histogram
system.cpu1.toL2Bus.snoop_fanout::4                 0      0.00%    100.00% # Request fanout histogram
system.cpu1.toL2Bus.snoop_fanout::overflows            0      0.00%    100.00% # Request fanout histogram
system.cpu1.toL2Bus.snoop_fanout::min_value            0                       # Request fanout histogram
system.cpu1.toL2Bus.snoop_fanout::max_value            1                       # Request fanout histogram
system.cpu1.toL2Bus.snoop_fanout::total         64117                       # Request fanout histogram
system.cpu1.toL2Bus.reqLayer0.occupancy      36807339                       # Layer occupancy (ticks)
system.cpu1.toL2Bus.reqLayer0.utilization          0.2                       # Layer utilization (%)
system.cpu1.toL2Bus.respLayer1.occupancy     55181610                       # Layer occupancy (ticks)
system.cpu1.toL2Bus.respLayer1.utilization          0.3                       # Layer utilization (%)
system.cpu1.toL2Bus.respLayer0.occupancy       355284                       # Layer occupancy (ticks)
system.cpu1.toL2Bus.respLayer0.utilization          0.0                       # Layer utilization (%)
system.switch_cpus_10.pwrStateResidencyTicks::OFF  21392093328                       # Cumulative time (in ticks) in various power states
system.switch_cpus_10.dtb.walker.pwrStateResidencyTicks::UNDEFINED 1314743800944                       # Cumulative time (in ticks) in various power states
system.switch_cpus_10.itb.walker.pwrStateResidencyTicks::UNDEFINED 1314743800944                       # Cumulative time (in ticks) in various power states
system.switch_cpus_11.pwrStateResidencyTicks::OFF  21392093328                       # Cumulative time (in ticks) in various power states
system.switch_cpus_11.dtb.walker.pwrStateResidencyTicks::UNDEFINED 1314743800944                       # Cumulative time (in ticks) in various power states
system.switch_cpus_11.itb.walker.pwrStateResidencyTicks::UNDEFINED 1314743800944                       # Cumulative time (in ticks) in various power states
system.cpu_voltage_domain.voltage                   1                       # Voltage in Volts
system.switch_cpus1.numPwrStateTransitions            1                       # Number of power state transitions
system.switch_cpus1.pwrStateResidencyTicks::UNDEFINED 1293351707616                       # Cumulative time (in ticks) in various power states
system.switch_cpus1.pwrStateResidencyTicks::OFF  21392093328                       # Cumulative time (in ticks) in various power states
system.switch_cpus1.dtb.walker.pwrStateResidencyTicks::UNDEFINED 1314743800944                       # Cumulative time (in ticks) in various power states
system.switch_cpus1.itb.walker.pwrStateResidencyTicks::UNDEFINED 1314743800944                       # Cumulative time (in ticks) in various power states
system.mem_ctrls.pwrStateResidencyTicks::UNDEFINED 1314743800944                       # Cumulative time (in ticks) in various power states
system.mem_ctrls.bytes_read::.cpu0.inst            64                       # Number of bytes read from this memory
system.mem_ctrls.bytes_read::.cpu0.data            64                       # Number of bytes read from this memory
system.mem_ctrls.bytes_read::.cpu1.inst            64                       # Number of bytes read from this memory
system.mem_ctrls.bytes_read::.cpu1.data            64                       # Number of bytes read from this memory
system.mem_ctrls.bytes_read::.switch_cpus0.inst        42496                       # Number of bytes read from this memory
system.mem_ctrls.bytes_read::.switch_cpus0.data        70336                       # Number of bytes read from this memory
system.mem_ctrls.bytes_read::.switch_cpus1.inst        12672                       # Number of bytes read from this memory
system.mem_ctrls.bytes_read::.switch_cpus1.data        75136                       # Number of bytes read from this memory
system.mem_ctrls.bytes_read::.switch_cpus_10.inst        10176                       # Number of bytes read from this memory
system.mem_ctrls.bytes_read::.switch_cpus_10.data       263936                       # Number of bytes read from this memory
system.mem_ctrls.bytes_read::.switch_cpus_11.inst         5504                       # Number of bytes read from this memory
system.mem_ctrls.bytes_read::.switch_cpus_11.data      1429696                       # Number of bytes read from this memory
system.mem_ctrls.bytes_read::total            1910208                       # Number of bytes read from this memory
system.mem_ctrls.bytes_inst_read::.cpu0.inst           64                       # Number of instructions bytes read from this memory
system.mem_ctrls.bytes_inst_read::.cpu1.inst           64                       # Number of instructions bytes read from this memory
system.mem_ctrls.bytes_inst_read::.switch_cpus0.inst        42496                       # Number of instructions bytes read from this memory
system.mem_ctrls.bytes_inst_read::.switch_cpus1.inst        12672                       # Number of instructions bytes read from this memory
system.mem_ctrls.bytes_inst_read::.switch_cpus_10.inst        10176                       # Number of instructions bytes read from this memory
system.mem_ctrls.bytes_inst_read::.switch_cpus_11.inst         5504                       # Number of instructions bytes read from this memory
system.mem_ctrls.bytes_inst_read::total         70976                       # Number of instructions bytes read from this memory
system.mem_ctrls.num_reads::.cpu0.inst              1                       # Number of read requests responded to by this memory
system.mem_ctrls.num_reads::.cpu0.data              1                       # Number of read requests responded to by this memory
system.mem_ctrls.num_reads::.cpu1.inst              1                       # Number of read requests responded to by this memory
system.mem_ctrls.num_reads::.cpu1.data              1                       # Number of read requests responded to by this memory
system.mem_ctrls.num_reads::.switch_cpus0.inst          664                       # Number of read requests responded to by this memory
system.mem_ctrls.num_reads::.switch_cpus0.data         1099                       # Number of read requests responded to by this memory
system.mem_ctrls.num_reads::.switch_cpus1.inst          198                       # Number of read requests responded to by this memory
system.mem_ctrls.num_reads::.switch_cpus1.data         1174                       # Number of read requests responded to by this memory
system.mem_ctrls.num_reads::.switch_cpus_10.inst          159                       # Number of read requests responded to by this memory
system.mem_ctrls.num_reads::.switch_cpus_10.data         4124                       # Number of read requests responded to by this memory
system.mem_ctrls.num_reads::.switch_cpus_11.inst           86                       # Number of read requests responded to by this memory
system.mem_ctrls.num_reads::.switch_cpus_11.data        22339                       # Number of read requests responded to by this memory
system.mem_ctrls.num_reads::total               29847                       # Number of read requests responded to by this memory
system.mem_ctrls.bw_read::.cpu0.inst             2992                       # Total read bandwidth from this memory (bytes/s)
system.mem_ctrls.bw_read::.cpu0.data             2992                       # Total read bandwidth from this memory (bytes/s)
system.mem_ctrls.bw_read::.cpu1.inst             2992                       # Total read bandwidth from this memory (bytes/s)
system.mem_ctrls.bw_read::.cpu1.data             2992                       # Total read bandwidth from this memory (bytes/s)
system.mem_ctrls.bw_read::.switch_cpus0.inst      1986528                       # Total read bandwidth from this memory (bytes/s)
system.mem_ctrls.bw_read::.switch_cpus0.data      3287944                       # Total read bandwidth from this memory (bytes/s)
system.mem_ctrls.bw_read::.switch_cpus1.inst       592368                       # Total read bandwidth from this memory (bytes/s)
system.mem_ctrls.bw_read::.switch_cpus1.data      3512326                       # Total read bandwidth from this memory (bytes/s)
system.mem_ctrls.bw_read::.switch_cpus_10.inst       475690                       # Total read bandwidth from this memory (bytes/s)
system.mem_ctrls.bw_read::.switch_cpus_10.data     12338016                       # Total read bandwidth from this memory (bytes/s)
system.mem_ctrls.bw_read::.switch_cpus_11.inst       257291                       # Total read bandwidth from this memory (bytes/s)
system.mem_ctrls.bw_read::.switch_cpus_11.data     66832917                       # Total read bandwidth from this memory (bytes/s)
system.mem_ctrls.bw_read::total              89295048                       # Total read bandwidth from this memory (bytes/s)
system.mem_ctrls.bw_inst_read::.cpu0.inst         2992                       # Instruction read bandwidth from this memory (bytes/s)
system.mem_ctrls.bw_inst_read::.cpu1.inst         2992                       # Instruction read bandwidth from this memory (bytes/s)
system.mem_ctrls.bw_inst_read::.switch_cpus0.inst      1986528                       # Instruction read bandwidth from this memory (bytes/s)
system.mem_ctrls.bw_inst_read::.switch_cpus1.inst       592368                       # Instruction read bandwidth from this memory (bytes/s)
system.mem_ctrls.bw_inst_read::.switch_cpus_10.inst       475690                       # Instruction read bandwidth from this memory (bytes/s)
system.mem_ctrls.bw_inst_read::.switch_cpus_11.inst       257291                       # Instruction read bandwidth from this memory (bytes/s)
system.mem_ctrls.bw_inst_read::total          3317861                       # Instruction read bandwidth from this memory (bytes/s)
system.mem_ctrls.bw_total::.cpu0.inst            2992                       # Total bandwidth to/from this memory (bytes/s)
system.mem_ctrls.bw_total::.cpu0.data            2992                       # Total bandwidth to/from this memory (bytes/s)
system.mem_ctrls.bw_total::.cpu1.inst            2992                       # Total bandwidth to/from this memory (bytes/s)
system.mem_ctrls.bw_total::.cpu1.data            2992                       # Total bandwidth to/from this memory (bytes/s)
system.mem_ctrls.bw_total::.switch_cpus0.inst      1986528                       # Total bandwidth to/from this memory (bytes/s)
system.mem_ctrls.bw_total::.switch_cpus0.data      3287944                       # Total bandwidth to/from this memory (bytes/s)
system.mem_ctrls.bw_total::.switch_cpus1.inst       592368                       # Total bandwidth to/from this memory (bytes/s)
system.mem_ctrls.bw_total::.switch_cpus1.data      3512326                       # Total bandwidth to/from this memory (bytes/s)
system.mem_ctrls.bw_total::.switch_cpus_10.inst       475690                       # Total bandwidth to/from this memory (bytes/s)
system.mem_ctrls.bw_total::.switch_cpus_10.data     12338016                       # Total bandwidth to/from this memory (bytes/s)
system.mem_ctrls.bw_total::.switch_cpus_11.inst       257291                       # Total bandwidth to/from this memory (bytes/s)
system.mem_ctrls.bw_total::.switch_cpus_11.data     66832917                       # Total bandwidth to/from this memory (bytes/s)
system.mem_ctrls.bw_total::total             89295048                       # Total bandwidth to/from this memory (bytes/s)
system.cpu_clk_domain.clock                       417                       # Clock period in ticks

---------- End Simulation Statistics   ----------
