
---------- Begin Simulation Statistics ----------
final_tick                               1321178793990                       # Number of ticks from beginning of simulation (restored from checkpoints and never reset)
host_inst_rate                                 136019                       # Simulator instruction rate (inst/s)
host_mem_usage                                4581944                       # Number of bytes of host memory used
host_op_rate                                   237059                       # Simulator op (including micro ops) rate (op/s)
host_seconds                                   735.70                       # Real time elapsed on the host
host_tick_rate                               37823798                       # Simulator tick rate (ticks/s)
sim_freq                                 1000000000000                       # Frequency of simulated ticks
sim_insts                                   100069637                       # Number of instructions simulated
sim_ops                                     174404928                       # Number of ops (including micro ops) simulated
sim_seconds                                  0.027827                       # Number of seconds simulated
sim_ticks                                 27827086374                       # Number of ticks simulated
system.cpu0.Branches                                1                       # Number of branches fetched
system.cpu0.committedInsts                          2                       # Number of instructions committed
system.cpu0.committedOps                            4                       # Number of ops (including micro ops) committed
system.cpu0.dcache.prefetcher.num_hwpf_issued         7200                       # number of hwpf issued
system.cpu0.dcache.prefetcher.pfBufferHit         1226                       # number of redundant prefetches already in prefetch queue
system.cpu0.dcache.prefetcher.pfIdentified         9315                       # number of prefetch candidates identified
system.cpu0.dcache.prefetcher.pfInCache             0                       # number of redundant prefetches already in cache/mshr dropped
system.cpu0.dcache.prefetcher.pfRemovedFull            0                       # number of prefetches dropped due to prefetch queue size
system.cpu0.dcache.prefetcher.pfSpanPage          621                       # number of prefetches that crossed the page
system.cpu0.dtb.rdAccesses                          0                       # TLB accesses on read requests
system.cpu0.dtb.rdMisses                            0                       # TLB misses on read requests
system.cpu0.dtb.wrAccesses                          0                       # TLB accesses on write requests
system.cpu0.dtb.wrMisses                            0                       # TLB misses on write requests
system.cpu0.idle_fraction                           0                       # Percentage of idle cycles
system.cpu0.itb.rdAccesses                          0                       # TLB accesses on read requests
system.cpu0.itb.rdMisses                            0                       # TLB misses on read requests
system.cpu0.itb.wrAccesses                          3                       # TLB accesses on write requests
system.cpu0.itb.wrMisses                            0                       # TLB misses on write requests
system.cpu0.not_idle_fraction                       1                       # Percentage of non-idle cycles
system.cpu0.numCycles                               5                       # number of cpu cycles simulated
system.cpu0.numWorkItemsCompleted                   0                       # number of work items this cpu completed
system.cpu0.numWorkItemsStarted                     0                       # number of work items this cpu started
system.cpu0.num_busy_cycles                         5                       # Number of busy cycles
system.cpu0.num_cc_register_reads                   5                       # number of times the CC registers were read
system.cpu0.num_conditional_control_insts            1                       # number of instructions that are conditional controls
system.cpu0.num_fp_alu_accesses                     0                       # Number of float alu accesses
system.cpu0.num_fp_insts                            0                       # number of float instructions
system.cpu0.num_fp_register_reads                   0                       # number of times the floating registers were read
system.cpu0.num_fp_register_writes                  0                       # number of times the floating registers were written
system.cpu0.num_func_calls                          0                       # number of times a function call or return occured
system.cpu0.num_idle_cycles                         0                       # Number of idle cycles
system.cpu0.num_int_alu_accesses                    4                       # Number of integer alu accesses
system.cpu0.num_int_insts                           4                       # number of integer instructions
system.cpu0.num_int_register_reads                  7                       # number of times the integer registers were read
system.cpu0.num_int_register_writes                 3                       # number of times the integer registers were written
system.cpu0.num_load_insts                          0                       # Number of load instructions
system.cpu0.num_mem_refs                            0                       # number of memory refs
system.cpu0.num_store_insts                         0                       # Number of store instructions
system.cpu0.num_vec_alu_accesses                    0                       # Number of vector alu accesses
system.cpu0.num_vec_insts                           0                       # number of vector instructions
system.cpu0.num_vec_register_reads                  0                       # number of times the vector registers were read
system.cpu0.num_vec_register_writes                 0                       # number of times the vector registers were written
system.cpu0.op_class::No_OpClass                    0      0.00%      0.00% # Class of executed instruction
system.cpu0.op_class::IntAlu                        4    100.00%    100.00% # Class of executed instruction
system.cpu0.op_class::IntMult                       0      0.00%    100.00% # Class of executed instruction
system.cpu0.op_class::IntDiv                        0      0.00%    100.00% # Class of executed instruction
system.cpu0.op_class::FloatAdd                      0      0.00%    100.00% # Class of executed instruction
system.cpu0.op_class::FloatCmp                      0      0.00%    100.00% # Class of executed instruction
system.cpu0.op_class::FloatCvt                      0      0.00%    100.00% # Class of executed instruction
system.cpu0.op_class::FloatMult                     0      0.00%    100.00% # Class of executed instruction
system.cpu0.op_class::FloatMultAcc                  0      0.00%    100.00% # Class of executed instruction
system.cpu0.op_class::FloatDiv                      0      0.00%    100.00% # Class of executed instruction
system.cpu0.op_class::FloatMisc                     0      0.00%    100.00% # Class of executed instruction
system.cpu0.op_class::FloatSqrt                     0      0.00%    100.00% # Class of executed instruction
system.cpu0.op_class::SimdAdd                       0      0.00%    100.00% # Class of executed instruction
system.cpu0.op_class::SimdAddAcc                    0      0.00%    100.00% # Class of executed instruction
system.cpu0.op_class::SimdAlu                       0      0.00%    100.00% # Class of executed instruction
system.cpu0.op_class::SimdCmp                       0      0.00%    100.00% # Class of executed instruction
system.cpu0.op_class::SimdCvt                       0      0.00%    100.00% # Class of executed instruction
system.cpu0.op_class::SimdMisc                      0      0.00%    100.00% # Class of executed instruction
system.cpu0.op_class::SimdMult                      0      0.00%    100.00% # Class of executed instruction
system.cpu0.op_class::SimdMultAcc                   0      0.00%    100.00% # Class of executed instruction
system.cpu0.op_class::SimdShift                     0      0.00%    100.00% # Class of executed instruction
system.cpu0.op_class::SimdShiftAcc                  0      0.00%    100.00% # Class of executed instruction
system.cpu0.op_class::SimdDiv                       0      0.00%    100.00% # Class of executed instruction
system.cpu0.op_class::SimdSqrt                      0      0.00%    100.00% # Class of executed instruction
system.cpu0.op_class::SimdFloatAdd                  0      0.00%    100.00% # Class of executed instruction
system.cpu0.op_class::SimdFloatAlu                  0      0.00%    100.00% # Class of executed instruction
system.cpu0.op_class::SimdFloatCmp                  0      0.00%    100.00% # Class of executed instruction
system.cpu0.op_class::SimdFloatCvt                  0      0.00%    100.00% # Class of executed instruction
system.cpu0.op_class::SimdFloatDiv                  0      0.00%    100.00% # Class of executed instruction
system.cpu0.op_class::SimdFloatMisc                 0      0.00%    100.00% # Class of executed instruction
system.cpu0.op_class::SimdFloatMult                 0      0.00%    100.00% # Class of executed instruction
system.cpu0.op_class::SimdFloatMultAcc              0      0.00%    100.00% # Class of executed instruction
system.cpu0.op_class::SimdFloatSqrt                 0      0.00%    100.00% # Class of executed instruction
system.cpu0.op_class::SimdReduceAdd                 0      0.00%    100.00% # Class of executed instruction
system.cpu0.op_class::SimdReduceAlu                 0      0.00%    100.00% # Class of executed instruction
system.cpu0.op_class::SimdReduceCmp                 0      0.00%    100.00% # Class of executed instruction
system.cpu0.op_class::SimdFloatReduceAdd            0      0.00%    100.00% # Class of executed instruction
system.cpu0.op_class::SimdFloatReduceCmp            0      0.00%    100.00% # Class of executed instruction
system.cpu0.op_class::SimdAes                       0      0.00%    100.00% # Class of executed instruction
system.cpu0.op_class::SimdAesMix                    0      0.00%    100.00% # Class of executed instruction
system.cpu0.op_class::SimdSha1Hash                  0      0.00%    100.00% # Class of executed instruction
system.cpu0.op_class::SimdSha1Hash2                 0      0.00%    100.00% # Class of executed instruction
system.cpu0.op_class::SimdSha256Hash                0      0.00%    100.00% # Class of executed instruction
system.cpu0.op_class::SimdSha256Hash2               0      0.00%    100.00% # Class of executed instruction
system.cpu0.op_class::SimdShaSigma2                 0      0.00%    100.00% # Class of executed instruction
system.cpu0.op_class::SimdShaSigma3                 0      0.00%    100.00% # Class of executed instruction
system.cpu0.op_class::SimdPredAlu                   0      0.00%    100.00% # Class of executed instruction
system.cpu0.op_class::MemRead                       0      0.00%    100.00% # Class of executed instruction
system.cpu0.op_class::MemWrite                      0      0.00%    100.00% # Class of executed instruction
system.cpu0.op_class::FloatMemRead                  0      0.00%    100.00% # Class of executed instruction
system.cpu0.op_class::FloatMemWrite                 0      0.00%    100.00% # Class of executed instruction
system.cpu0.op_class::IprAccess                     0      0.00%    100.00% # Class of executed instruction
system.cpu0.op_class::InstPrefetch                  0      0.00%    100.00% # Class of executed instruction
system.cpu0.op_class::total                         4                       # Class of executed instruction
system.cpu0.toL2Bus.snoop_filter.hit_multi_requests           23                       # Number of requests hitting in the snoop filter with multiple (>1) holders of the requested data.
system.cpu0.toL2Bus.snoop_filter.hit_multi_snoops            0                       # Number of snoops hitting in the snoop filter with multiple (>1) holders of the requested data.
system.cpu0.toL2Bus.snoop_filter.hit_single_requests        42052                       # Number of requests hitting in the snoop filter with a single holder of the requested data.
system.cpu0.toL2Bus.snoop_filter.hit_single_snoops          344                       # Number of snoops hitting in the snoop filter with a single holder of the requested data.
system.cpu0.toL2Bus.snoop_filter.tot_requests        84952                       # Total number of requests made to the snoop filter.
system.cpu0.toL2Bus.snoop_filter.tot_snoops          344                       # Total number of snoops made to the snoop filter.
system.cpu0.toL3Bus.snoop_filter.hit_multi_requests            0                       # Number of requests hitting in the snoop filter with multiple (>1) holders of the requested data.
system.cpu0.toL3Bus.snoop_filter.hit_multi_snoops            0                       # Number of snoops hitting in the snoop filter with multiple (>1) holders of the requested data.
system.cpu0.toL3Bus.snoop_filter.hit_single_requests        10700                       # Number of requests hitting in the snoop filter with a single holder of the requested data.
system.cpu0.toL3Bus.snoop_filter.hit_single_snoops            0                       # Number of snoops hitting in the snoop filter with a single holder of the requested data.
system.cpu0.toL3Bus.snoop_filter.tot_requests        25839                       # Total number of requests made to the snoop filter.
system.cpu0.toL3Bus.snoop_filter.tot_snoops            0                       # Total number of snoops made to the snoop filter.
system.cpu0.workload.numSyscalls                    0                       # Number of system calls
system.cpu1.Branches                                1                       # Number of branches fetched
system.cpu1.committedInsts                          1                       # Number of instructions committed
system.cpu1.committedOps                            5                       # Number of ops (including micro ops) committed
system.cpu1.dcache.prefetcher.num_hwpf_issued          171                       # number of hwpf issued
system.cpu1.dcache.prefetcher.pfBufferHit            0                       # number of redundant prefetches already in prefetch queue
system.cpu1.dcache.prefetcher.pfIdentified          171                       # number of prefetch candidates identified
system.cpu1.dcache.prefetcher.pfInCache             0                       # number of redundant prefetches already in cache/mshr dropped
system.cpu1.dcache.prefetcher.pfRemovedFull            0                       # number of prefetches dropped due to prefetch queue size
system.cpu1.dcache.prefetcher.pfSpanPage            1                       # number of prefetches that crossed the page
system.cpu1.dtb.rdAccesses                          0                       # TLB accesses on read requests
system.cpu1.dtb.rdMisses                            0                       # TLB misses on read requests
system.cpu1.dtb.wrAccesses                          1                       # TLB accesses on write requests
system.cpu1.dtb.wrMisses                            0                       # TLB misses on write requests
system.cpu1.idle_fraction                           0                       # Percentage of idle cycles
system.cpu1.itb.rdAccesses                          0                       # TLB accesses on read requests
system.cpu1.itb.rdMisses                            0                       # TLB misses on read requests
system.cpu1.itb.wrAccesses                          2                       # TLB accesses on write requests
system.cpu1.itb.wrMisses                            0                       # TLB misses on write requests
system.cpu1.not_idle_fraction                       1                       # Percentage of non-idle cycles
system.cpu1.numCycles                               6                       # number of cpu cycles simulated
system.cpu1.numWorkItemsCompleted                   0                       # number of work items this cpu completed
system.cpu1.numWorkItemsStarted                     0                       # number of work items this cpu started
system.cpu1.num_busy_cycles                         6                       # Number of busy cycles
system.cpu1.num_conditional_control_insts            0                       # number of instructions that are conditional controls
system.cpu1.num_fp_alu_accesses                     0                       # Number of float alu accesses
system.cpu1.num_fp_insts                            0                       # number of float instructions
system.cpu1.num_fp_register_reads                   0                       # number of times the floating registers were read
system.cpu1.num_fp_register_writes                  0                       # number of times the floating registers were written
system.cpu1.num_func_calls                          1                       # number of times a function call or return occured
system.cpu1.num_idle_cycles                         0                       # Number of idle cycles
system.cpu1.num_int_alu_accesses                    5                       # Number of integer alu accesses
system.cpu1.num_int_insts                           5                       # number of integer instructions
system.cpu1.num_int_register_reads                  9                       # number of times the integer registers were read
system.cpu1.num_int_register_writes                 3                       # number of times the integer registers were written
system.cpu1.num_load_insts                          0                       # Number of load instructions
system.cpu1.num_mem_refs                            1                       # number of memory refs
system.cpu1.num_store_insts                         1                       # Number of store instructions
system.cpu1.num_vec_alu_accesses                    0                       # Number of vector alu accesses
system.cpu1.num_vec_insts                           0                       # number of vector instructions
system.cpu1.num_vec_register_reads                  0                       # number of times the vector registers were read
system.cpu1.num_vec_register_writes                 0                       # number of times the vector registers were written
system.cpu1.op_class::No_OpClass                    0      0.00%      0.00% # Class of executed instruction
system.cpu1.op_class::IntAlu                        4     80.00%     80.00% # Class of executed instruction
system.cpu1.op_class::IntMult                       0      0.00%     80.00% # Class of executed instruction
system.cpu1.op_class::IntDiv                        0      0.00%     80.00% # Class of executed instruction
system.cpu1.op_class::FloatAdd                      0      0.00%     80.00% # Class of executed instruction
system.cpu1.op_class::FloatCmp                      0      0.00%     80.00% # Class of executed instruction
system.cpu1.op_class::FloatCvt                      0      0.00%     80.00% # Class of executed instruction
system.cpu1.op_class::FloatMult                     0      0.00%     80.00% # Class of executed instruction
system.cpu1.op_class::FloatMultAcc                  0      0.00%     80.00% # Class of executed instruction
system.cpu1.op_class::FloatDiv                      0      0.00%     80.00% # Class of executed instruction
system.cpu1.op_class::FloatMisc                     0      0.00%     80.00% # Class of executed instruction
system.cpu1.op_class::FloatSqrt                     0      0.00%     80.00% # Class of executed instruction
system.cpu1.op_class::SimdAdd                       0      0.00%     80.00% # Class of executed instruction
system.cpu1.op_class::SimdAddAcc                    0      0.00%     80.00% # Class of executed instruction
system.cpu1.op_class::SimdAlu                       0      0.00%     80.00% # Class of executed instruction
system.cpu1.op_class::SimdCmp                       0      0.00%     80.00% # Class of executed instruction
system.cpu1.op_class::SimdCvt                       0      0.00%     80.00% # Class of executed instruction
system.cpu1.op_class::SimdMisc                      0      0.00%     80.00% # Class of executed instruction
system.cpu1.op_class::SimdMult                      0      0.00%     80.00% # Class of executed instruction
system.cpu1.op_class::SimdMultAcc                   0      0.00%     80.00% # Class of executed instruction
system.cpu1.op_class::SimdShift                     0      0.00%     80.00% # Class of executed instruction
system.cpu1.op_class::SimdShiftAcc                  0      0.00%     80.00% # Class of executed instruction
system.cpu1.op_class::SimdDiv                       0      0.00%     80.00% # Class of executed instruction
system.cpu1.op_class::SimdSqrt                      0      0.00%     80.00% # Class of executed instruction
system.cpu1.op_class::SimdFloatAdd                  0      0.00%     80.00% # Class of executed instruction
system.cpu1.op_class::SimdFloatAlu                  0      0.00%     80.00% # Class of executed instruction
system.cpu1.op_class::SimdFloatCmp                  0      0.00%     80.00% # Class of executed instruction
system.cpu1.op_class::SimdFloatCvt                  0      0.00%     80.00% # Class of executed instruction
system.cpu1.op_class::SimdFloatDiv                  0      0.00%     80.00% # Class of executed instruction
system.cpu1.op_class::SimdFloatMisc                 0      0.00%     80.00% # Class of executed instruction
system.cpu1.op_class::SimdFloatMult                 0      0.00%     80.00% # Class of executed instruction
system.cpu1.op_class::SimdFloatMultAcc              0      0.00%     80.00% # Class of executed instruction
system.cpu1.op_class::SimdFloatSqrt                 0      0.00%     80.00% # Class of executed instruction
system.cpu1.op_class::SimdReduceAdd                 0      0.00%     80.00% # Class of executed instruction
system.cpu1.op_class::SimdReduceAlu                 0      0.00%     80.00% # Class of executed instruction
system.cpu1.op_class::SimdReduceCmp                 0      0.00%     80.00% # Class of executed instruction
system.cpu1.op_class::SimdFloatReduceAdd            0      0.00%     80.00% # Class of executed instruction
system.cpu1.op_class::SimdFloatReduceCmp            0      0.00%     80.00% # Class of executed instruction
system.cpu1.op_class::SimdAes                       0      0.00%     80.00% # Class of executed instruction
system.cpu1.op_class::SimdAesMix                    0      0.00%     80.00% # Class of executed instruction
system.cpu1.op_class::SimdSha1Hash                  0      0.00%     80.00% # Class of executed instruction
system.cpu1.op_class::SimdSha1Hash2                 0      0.00%     80.00% # Class of executed instruction
system.cpu1.op_class::SimdSha256Hash                0      0.00%     80.00% # Class of executed instruction
system.cpu1.op_class::SimdSha256Hash2               0      0.00%     80.00% # Class of executed instruction
system.cpu1.op_class::SimdShaSigma2                 0      0.00%     80.00% # Class of executed instruction
system.cpu1.op_class::SimdShaSigma3                 0      0.00%     80.00% # Class of executed instruction
system.cpu1.op_class::SimdPredAlu                   0      0.00%     80.00% # Class of executed instruction
system.cpu1.op_class::MemRead                       0      0.00%     80.00% # Class of executed instruction
system.cpu1.op_class::MemWrite                      1     20.00%    100.00% # Class of executed instruction
system.cpu1.op_class::FloatMemRead                  0      0.00%    100.00% # Class of executed instruction
system.cpu1.op_class::FloatMemWrite                 0      0.00%    100.00% # Class of executed instruction
system.cpu1.op_class::IprAccess                     0      0.00%    100.00% # Class of executed instruction
system.cpu1.op_class::InstPrefetch                  0      0.00%    100.00% # Class of executed instruction
system.cpu1.op_class::total                         5                       # Class of executed instruction
system.cpu1.toL2Bus.snoop_filter.hit_multi_requests           45                       # Number of requests hitting in the snoop filter with multiple (>1) holders of the requested data.
system.cpu1.toL2Bus.snoop_filter.hit_multi_snoops            0                       # Number of snoops hitting in the snoop filter with multiple (>1) holders of the requested data.
system.cpu1.toL2Bus.snoop_filter.hit_single_requests        56282                       # Number of requests hitting in the snoop filter with a single holder of the requested data.
system.cpu1.toL2Bus.snoop_filter.hit_single_snoops          504                       # Number of snoops hitting in the snoop filter with a single holder of the requested data.
system.cpu1.toL2Bus.snoop_filter.tot_requests       113361                       # Total number of requests made to the snoop filter.
system.cpu1.toL2Bus.snoop_filter.tot_snoops          504                       # Total number of snoops made to the snoop filter.
system.cpu1.toL3Bus.snoop_filter.hit_multi_requests            0                       # Number of requests hitting in the snoop filter with multiple (>1) holders of the requested data.
system.cpu1.toL3Bus.snoop_filter.hit_multi_snoops            0                       # Number of snoops hitting in the snoop filter with multiple (>1) holders of the requested data.
system.cpu1.toL3Bus.snoop_filter.hit_single_requests        25885                       # Number of requests hitting in the snoop filter with a single holder of the requested data.
system.cpu1.toL3Bus.snoop_filter.hit_single_snoops          239                       # Number of snoops hitting in the snoop filter with a single holder of the requested data.
system.cpu1.toL3Bus.snoop_filter.tot_requests        56188                       # Total number of requests made to the snoop filter.
system.cpu1.toL3Bus.snoop_filter.tot_snoops          239                       # Total number of snoops made to the snoop filter.
system.cpu1.workload.numSyscalls                16934                       # Number of system calls
system.membus.snoop_filter.hit_multi_requests            0                       # Number of requests hitting in the snoop filter with multiple (>1) holders of the requested data.
system.membus.snoop_filter.hit_multi_snoops            0                       # Number of snoops hitting in the snoop filter with multiple (>1) holders of the requested data.
system.membus.snoop_filter.hit_single_requests          594                       # Number of requests hitting in the snoop filter with a single holder of the requested data.
system.membus.snoop_filter.hit_single_snoops            0                       # Number of snoops hitting in the snoop filter with a single holder of the requested data.
system.membus.snoop_filter.tot_requests         44822                       # Total number of requests made to the snoop filter.
system.membus.snoop_filter.tot_snoops               0                       # Total number of snoops made to the snoop filter.
system.switch_cpus0.Branches                   117309                       # Number of branches fetched
system.switch_cpus0.committedInsts            1000002                       # Number of instructions committed
system.switch_cpus0.committedOps              1452740                       # Number of ops (including micro ops) committed
system.switch_cpus0.dtb.rdAccesses             152930                       # TLB accesses on read requests
system.switch_cpus0.dtb.rdMisses                   39                       # TLB misses on read requests
system.switch_cpus0.dtb.wrAccesses              66073                       # TLB accesses on write requests
system.switch_cpus0.dtb.wrMisses                    9                       # TLB misses on write requests
system.switch_cpus0.idle_fraction            0.000000                       # Percentage of idle cycles
system.switch_cpus0.itb.rdAccesses                  0                       # TLB accesses on read requests
system.switch_cpus0.itb.rdMisses                    0                       # TLB misses on read requests
system.switch_cpus0.itb.wrAccesses            1349116                       # TLB accesses on write requests
system.switch_cpus0.itb.wrMisses                   15                       # TLB misses on write requests
system.switch_cpus0.not_idle_fraction        1.000000                       # Percentage of non-idle cycles
system.switch_cpus0.numCycles                 4906406                       # number of cpu cycles simulated
system.switch_cpus0.numWorkItemsCompleted            0                       # number of work items this cpu completed
system.switch_cpus0.numWorkItemsStarted             0                       # number of work items this cpu started
system.switch_cpus0.num_busy_cycles      4906405.558853                       # Number of busy cycles
system.switch_cpus0.num_cc_register_reads       715708                       # number of times the CC registers were read
system.switch_cpus0.num_cc_register_writes       828767                       # number of times the CC registers were written
system.switch_cpus0.num_conditional_control_insts        96812                       # number of instructions that are conditional controls
system.switch_cpus0.num_fp_alu_accesses          6832                       # Number of float alu accesses
system.switch_cpus0.num_fp_insts                 6832                       # number of float instructions
system.switch_cpus0.num_fp_register_reads         3416                       # number of times the floating registers were read
system.switch_cpus0.num_fp_register_writes         3416                       # number of times the floating registers were written
system.switch_cpus0.num_func_calls                504                       # number of times a function call or return occured
system.switch_cpus0.num_idle_cycles          0.441147                       # Number of idle cycles
system.switch_cpus0.num_int_alu_accesses      1452684                       # Number of integer alu accesses
system.switch_cpus0.num_int_insts             1452684                       # number of integer instructions
system.switch_cpus0.num_int_register_reads      3000823                       # number of times the integer registers were read
system.switch_cpus0.num_int_register_writes      1302061                       # number of times the integer registers were written
system.switch_cpus0.num_load_insts             152884                       # Number of load instructions
system.switch_cpus0.num_mem_refs               218915                       # number of memory refs
system.switch_cpus0.num_store_insts             66031                       # Number of store instructions
system.switch_cpus0.num_vec_alu_accesses            0                       # Number of vector alu accesses
system.switch_cpus0.num_vec_insts                   0                       # number of vector instructions
system.switch_cpus0.num_vec_register_reads            0                       # number of times the vector registers were read
system.switch_cpus0.num_vec_register_writes            0                       # number of times the vector registers were written
system.switch_cpus0.op_class::No_OpClass         1574      0.11%      0.11% # Class of executed instruction
system.switch_cpus0.op_class::IntAlu          1197642     82.35%     82.46% # Class of executed instruction
system.switch_cpus0.op_class::IntMult           36133      2.48%     84.95% # Class of executed instruction
system.switch_cpus0.op_class::IntDiv                0      0.00%     84.95% # Class of executed instruction
system.switch_cpus0.op_class::FloatAdd              0      0.00%     84.95% # Class of executed instruction
system.switch_cpus0.op_class::FloatCmp              0      0.00%     84.95% # Class of executed instruction
system.switch_cpus0.op_class::FloatCvt              0      0.00%     84.95% # Class of executed instruction
system.switch_cpus0.op_class::FloatMult             0      0.00%     84.95% # Class of executed instruction
system.switch_cpus0.op_class::FloatMultAcc            0      0.00%     84.95% # Class of executed instruction
system.switch_cpus0.op_class::FloatDiv              0      0.00%     84.95% # Class of executed instruction
system.switch_cpus0.op_class::FloatMisc             0      0.00%     84.95% # Class of executed instruction
system.switch_cpus0.op_class::FloatSqrt             0      0.00%     84.95% # Class of executed instruction
system.switch_cpus0.op_class::SimdAdd               0      0.00%     84.95% # Class of executed instruction
system.switch_cpus0.op_class::SimdAddAcc            0      0.00%     84.95% # Class of executed instruction
system.switch_cpus0.op_class::SimdAlu               0      0.00%     84.95% # Class of executed instruction
system.switch_cpus0.op_class::SimdCmp               0      0.00%     84.95% # Class of executed instruction
system.switch_cpus0.op_class::SimdCvt               0      0.00%     84.95% # Class of executed instruction
system.switch_cpus0.op_class::SimdMisc              0      0.00%     84.95% # Class of executed instruction
system.switch_cpus0.op_class::SimdMult              0      0.00%     84.95% # Class of executed instruction
system.switch_cpus0.op_class::SimdMultAcc            0      0.00%     84.95% # Class of executed instruction
system.switch_cpus0.op_class::SimdShift             0      0.00%     84.95% # Class of executed instruction
system.switch_cpus0.op_class::SimdShiftAcc            0      0.00%     84.95% # Class of executed instruction
system.switch_cpus0.op_class::SimdDiv               0      0.00%     84.95% # Class of executed instruction
system.switch_cpus0.op_class::SimdSqrt              0      0.00%     84.95% # Class of executed instruction
system.switch_cpus0.op_class::SimdFloatAdd            0      0.00%     84.95% # Class of executed instruction
system.switch_cpus0.op_class::SimdFloatAlu            0      0.00%     84.95% # Class of executed instruction
system.switch_cpus0.op_class::SimdFloatCmp            0      0.00%     84.95% # Class of executed instruction
system.switch_cpus0.op_class::SimdFloatCvt            0      0.00%     84.95% # Class of executed instruction
system.switch_cpus0.op_class::SimdFloatDiv            0      0.00%     84.95% # Class of executed instruction
system.switch_cpus0.op_class::SimdFloatMisc            0      0.00%     84.95% # Class of executed instruction
system.switch_cpus0.op_class::SimdFloatMult            0      0.00%     84.95% # Class of executed instruction
system.switch_cpus0.op_class::SimdFloatMultAcc            0      0.00%     84.95% # Class of executed instruction
system.switch_cpus0.op_class::SimdFloatSqrt            0      0.00%     84.95% # Class of executed instruction
system.switch_cpus0.op_class::SimdReduceAdd            0      0.00%     84.95% # Class of executed instruction
system.switch_cpus0.op_class::SimdReduceAlu            0      0.00%     84.95% # Class of executed instruction
system.switch_cpus0.op_class::SimdReduceCmp            0      0.00%     84.95% # Class of executed instruction
system.switch_cpus0.op_class::SimdFloatReduceAdd            0      0.00%     84.95% # Class of executed instruction
system.switch_cpus0.op_class::SimdFloatReduceCmp            0      0.00%     84.95% # Class of executed instruction
system.switch_cpus0.op_class::SimdAes               0      0.00%     84.95% # Class of executed instruction
system.switch_cpus0.op_class::SimdAesMix            0      0.00%     84.95% # Class of executed instruction
system.switch_cpus0.op_class::SimdSha1Hash            0      0.00%     84.95% # Class of executed instruction
system.switch_cpus0.op_class::SimdSha1Hash2            0      0.00%     84.95% # Class of executed instruction
system.switch_cpus0.op_class::SimdSha256Hash            0      0.00%     84.95% # Class of executed instruction
system.switch_cpus0.op_class::SimdSha256Hash2            0      0.00%     84.95% # Class of executed instruction
system.switch_cpus0.op_class::SimdShaSigma2            0      0.00%     84.95% # Class of executed instruction
system.switch_cpus0.op_class::SimdShaSigma3            0      0.00%     84.95% # Class of executed instruction
system.switch_cpus0.op_class::SimdPredAlu            0      0.00%     84.95% # Class of executed instruction
system.switch_cpus0.op_class::MemRead          149468     10.28%     95.22% # Class of executed instruction
system.switch_cpus0.op_class::MemWrite          62615      4.31%     99.53% # Class of executed instruction
system.switch_cpus0.op_class::FloatMemRead         3416      0.23%     99.77% # Class of executed instruction
system.switch_cpus0.op_class::FloatMemWrite         3416      0.23%    100.00% # Class of executed instruction
system.switch_cpus0.op_class::IprAccess             0      0.00%    100.00% # Class of executed instruction
system.switch_cpus0.op_class::InstPrefetch            0      0.00%    100.00% # Class of executed instruction
system.switch_cpus0.op_class::total           1454264                       # Class of executed instruction
system.switch_cpus1.Branches                   187560                       # Number of branches fetched
system.switch_cpus1.committedInsts             834676                       # Number of instructions committed
system.switch_cpus1.committedOps              1688616                       # Number of ops (including micro ops) committed
system.switch_cpus1.dtb.rdAccesses             243801                       # TLB accesses on read requests
system.switch_cpus1.dtb.rdMisses                   40                       # TLB misses on read requests
system.switch_cpus1.dtb.wrAccesses             178105                       # TLB accesses on write requests
system.switch_cpus1.dtb.wrMisses                    3                       # TLB misses on write requests
system.switch_cpus1.idle_fraction            0.000000                       # Percentage of idle cycles
system.switch_cpus1.itb.rdAccesses                  0                       # TLB accesses on read requests
system.switch_cpus1.itb.rdMisses                    0                       # TLB misses on read requests
system.switch_cpus1.itb.wrAccesses            1058335                       # TLB accesses on write requests
system.switch_cpus1.itb.wrMisses                   27                       # TLB misses on write requests
system.switch_cpus1.not_idle_fraction        1.000000                       # Percentage of non-idle cycles
system.switch_cpus1.numCycles                 4906406                       # number of cpu cycles simulated
system.switch_cpus1.numWorkItemsCompleted            0                       # number of work items this cpu completed
system.switch_cpus1.numWorkItemsStarted             0                       # number of work items this cpu started
system.switch_cpus1.num_busy_cycles      4906405.558853                       # Number of busy cycles
system.switch_cpus1.num_cc_register_reads       697863                       # number of times the CC registers were read
system.switch_cpus1.num_cc_register_writes       374594                       # number of times the CC registers were written
system.switch_cpus1.num_conditional_control_insts        85441                       # number of instructions that are conditional controls
system.switch_cpus1.num_fp_alu_accesses         13829                       # Number of float alu accesses
system.switch_cpus1.num_fp_insts                13829                       # number of float instructions
system.switch_cpus1.num_fp_register_reads        23213                       # number of times the floating registers were read
system.switch_cpus1.num_fp_register_writes        12163                       # number of times the floating registers were written
system.switch_cpus1.num_func_calls              88459                       # number of times a function call or return occured
system.switch_cpus1.num_idle_cycles          0.441147                       # Number of idle cycles
system.switch_cpus1.num_int_alu_accesses      1671232                       # Number of integer alu accesses
system.switch_cpus1.num_int_insts             1671232                       # number of integer instructions
system.switch_cpus1.num_int_register_reads      3543275                       # number of times the integer registers were read
system.switch_cpus1.num_int_register_writes      1310778                       # number of times the integer registers were written
system.switch_cpus1.num_load_insts             243799                       # Number of load instructions
system.switch_cpus1.num_mem_refs               421902                       # number of memory refs
system.switch_cpus1.num_store_insts            178103                       # Number of store instructions
system.switch_cpus1.num_vec_alu_accesses            0                       # Number of vector alu accesses
system.switch_cpus1.num_vec_insts                   0                       # number of vector instructions
system.switch_cpus1.num_vec_register_reads            0                       # number of times the vector registers were read
system.switch_cpus1.num_vec_register_writes            0                       # number of times the vector registers were written
system.switch_cpus1.op_class::No_OpClass         5582      0.33%      0.33% # Class of executed instruction
system.switch_cpus1.op_class::IntAlu          1248469     73.93%     74.27% # Class of executed instruction
system.switch_cpus1.op_class::IntMult             777      0.05%     74.31% # Class of executed instruction
system.switch_cpus1.op_class::IntDiv             1932      0.11%     74.43% # Class of executed instruction
system.switch_cpus1.op_class::FloatAdd            551      0.03%     74.46% # Class of executed instruction
system.switch_cpus1.op_class::FloatCmp              0      0.00%     74.46% # Class of executed instruction
system.switch_cpus1.op_class::FloatCvt              0      0.00%     74.46% # Class of executed instruction
system.switch_cpus1.op_class::FloatMult             0      0.00%     74.46% # Class of executed instruction
system.switch_cpus1.op_class::FloatMultAcc            0      0.00%     74.46% # Class of executed instruction
system.switch_cpus1.op_class::FloatDiv              0      0.00%     74.46% # Class of executed instruction
system.switch_cpus1.op_class::FloatMisc             0      0.00%     74.46% # Class of executed instruction
system.switch_cpus1.op_class::FloatSqrt             0      0.00%     74.46% # Class of executed instruction
system.switch_cpus1.op_class::SimdAdd               0      0.00%     74.46% # Class of executed instruction
system.switch_cpus1.op_class::SimdAddAcc            0      0.00%     74.46% # Class of executed instruction
system.switch_cpus1.op_class::SimdAlu            2212      0.13%     74.59% # Class of executed instruction
system.switch_cpus1.op_class::SimdCmp               0      0.00%     74.59% # Class of executed instruction
system.switch_cpus1.op_class::SimdCvt            2218      0.13%     74.72% # Class of executed instruction
system.switch_cpus1.op_class::SimdMisc           4973      0.29%     75.01% # Class of executed instruction
system.switch_cpus1.op_class::SimdMult              0      0.00%     75.01% # Class of executed instruction
system.switch_cpus1.op_class::SimdMultAcc            0      0.00%     75.01% # Class of executed instruction
system.switch_cpus1.op_class::SimdShift             0      0.00%     75.01% # Class of executed instruction
system.switch_cpus1.op_class::SimdShiftAcc            0      0.00%     75.01% # Class of executed instruction
system.switch_cpus1.op_class::SimdDiv               0      0.00%     75.01% # Class of executed instruction
system.switch_cpus1.op_class::SimdSqrt              0      0.00%     75.01% # Class of executed instruction
system.switch_cpus1.op_class::SimdFloatAdd            0      0.00%     75.01% # Class of executed instruction
system.switch_cpus1.op_class::SimdFloatAlu            0      0.00%     75.01% # Class of executed instruction
system.switch_cpus1.op_class::SimdFloatCmp            0      0.00%     75.01% # Class of executed instruction
system.switch_cpus1.op_class::SimdFloatCvt            0      0.00%     75.01% # Class of executed instruction
system.switch_cpus1.op_class::SimdFloatDiv            0      0.00%     75.01% # Class of executed instruction
system.switch_cpus1.op_class::SimdFloatMisc            0      0.00%     75.01% # Class of executed instruction
system.switch_cpus1.op_class::SimdFloatMult            0      0.00%     75.01% # Class of executed instruction
system.switch_cpus1.op_class::SimdFloatMultAcc            0      0.00%     75.01% # Class of executed instruction
system.switch_cpus1.op_class::SimdFloatSqrt            0      0.00%     75.01% # Class of executed instruction
system.switch_cpus1.op_class::SimdReduceAdd            0      0.00%     75.01% # Class of executed instruction
system.switch_cpus1.op_class::SimdReduceAlu            0      0.00%     75.01% # Class of executed instruction
system.switch_cpus1.op_class::SimdReduceCmp            0      0.00%     75.01% # Class of executed instruction
system.switch_cpus1.op_class::SimdFloatReduceAdd            0      0.00%     75.01% # Class of executed instruction
system.switch_cpus1.op_class::SimdFloatReduceCmp            0      0.00%     75.01% # Class of executed instruction
system.switch_cpus1.op_class::SimdAes               0      0.00%     75.01% # Class of executed instruction
system.switch_cpus1.op_class::SimdAesMix            0      0.00%     75.01% # Class of executed instruction
system.switch_cpus1.op_class::SimdSha1Hash            0      0.00%     75.01% # Class of executed instruction
system.switch_cpus1.op_class::SimdSha1Hash2            0      0.00%     75.01% # Class of executed instruction
system.switch_cpus1.op_class::SimdSha256Hash            0      0.00%     75.01% # Class of executed instruction
system.switch_cpus1.op_class::SimdSha256Hash2            0      0.00%     75.01% # Class of executed instruction
system.switch_cpus1.op_class::SimdShaSigma2            0      0.00%     75.01% # Class of executed instruction
system.switch_cpus1.op_class::SimdShaSigma3            0      0.00%     75.01% # Class of executed instruction
system.switch_cpus1.op_class::SimdPredAlu            0      0.00%     75.01% # Class of executed instruction
system.switch_cpus1.op_class::MemRead          242127     14.34%     89.35% # Class of executed instruction
system.switch_cpus1.op_class::MemWrite         177553     10.51%     99.87% # Class of executed instruction
system.switch_cpus1.op_class::FloatMemRead         1672      0.10%     99.97% # Class of executed instruction
system.switch_cpus1.op_class::FloatMemWrite          550      0.03%    100.00% # Class of executed instruction
system.switch_cpus1.op_class::IprAccess             0      0.00%    100.00% # Class of executed instruction
system.switch_cpus1.op_class::InstPrefetch            0      0.00%    100.00% # Class of executed instruction
system.switch_cpus1.op_class::total           1688616                       # Class of executed instruction
system.switch_cpus_10.branchPred.BTBCorrect            0                       # Number of correct BTB predictions (this stat may not work properly.
system.switch_cpus_10.branchPred.BTBHitPct     0.000000                       # BTB Hit Percentage
system.switch_cpus_10.branchPred.BTBHits            0                       # Number of BTB hits
system.switch_cpus_10.branchPred.BTBLookups     13177151                       # Number of BTB lookups
system.switch_cpus_10.branchPred.RASInCorrect            6                       # Number of incorrect RAS predictions.
system.switch_cpus_10.branchPred.condIncorrect      1929436                       # Number of conditional branches incorrect
system.switch_cpus_10.branchPred.condPredicted     14331357                       # Number of conditional branches predicted
system.switch_cpus_10.branchPred.indirectHits      4684787                       # Number of indirect target hits.
system.switch_cpus_10.branchPred.indirectLookups     13177151                       # Number of indirect predictor lookups.
system.switch_cpus_10.branchPred.indirectMisses      8492364                       # Number of indirect misses.
system.switch_cpus_10.branchPred.lookups     14405667                       # Number of BP lookups
system.switch_cpus_10.branchPred.usedRAS        27783                       # Number of times the RAS was used to get a target.
system.switch_cpus_10.branchPredindirectMispredicted      1399535                       # Number of mispredicted indirect branches.
system.switch_cpus_10.cc_regfile_reads       45731398                       # number of cc regfile reads
system.switch_cpus_10.cc_regfile_writes      58696781                       # number of cc regfile writes
system.switch_cpus_10.commit.amos                   0                       # Number of atomic instructions committed
system.switch_cpus_10.commit.branchMispredicts      1929436                       # The number of times a branch was mispredicted
system.switch_cpus_10.commit.branches         5686469                       # Number of branches committed
system.switch_cpus_10.commit.bw_lim_events      3033317                       # number cycles where commit BW limit reached
system.switch_cpus_10.commit.commitNonSpecStalls          110                       # The number of times commit has been forced to stall to communicate backwards
system.switch_cpus_10.commit.commitSquashedInsts     74214396                       # The number of squashed insts skipped by commit
system.switch_cpus_10.commit.committedInsts     48234955                       # Number of instructions committed
system.switch_cpus_10.commit.committedOps     69966470                       # Number of ops (including micro ops) committed
system.switch_cpus_10.commit.committed_per_cycle::samples     51217412                       # Number of insts commited each cycle
system.switch_cpus_10.commit.committed_per_cycle::mean     1.366068                       # Number of insts commited each cycle
system.switch_cpus_10.commit.committed_per_cycle::stdev     2.177035                       # Number of insts commited each cycle
system.switch_cpus_10.commit.committed_per_cycle::underflows            0      0.00%      0.00% # Number of insts commited each cycle
system.switch_cpus_10.commit.committed_per_cycle::0     27301865     53.31%     53.31% # Number of insts commited each cycle
system.switch_cpus_10.commit.committed_per_cycle::1     10281518     20.07%     73.38% # Number of insts commited each cycle
system.switch_cpus_10.commit.committed_per_cycle::2      2357761      4.60%     77.98% # Number of insts commited each cycle
system.switch_cpus_10.commit.committed_per_cycle::3      4979629      9.72%     87.71% # Number of insts commited each cycle
system.switch_cpus_10.commit.committed_per_cycle::4      1696895      3.31%     91.02% # Number of insts commited each cycle
system.switch_cpus_10.commit.committed_per_cycle::5       803738      1.57%     92.59% # Number of insts commited each cycle
system.switch_cpus_10.commit.committed_per_cycle::6       381086      0.74%     93.33% # Number of insts commited each cycle
system.switch_cpus_10.commit.committed_per_cycle::7       381603      0.75%     94.08% # Number of insts commited each cycle
system.switch_cpus_10.commit.committed_per_cycle::8      3033317      5.92%    100.00% # Number of insts commited each cycle
system.switch_cpus_10.commit.committed_per_cycle::overflows            0      0.00%    100.00% # Number of insts commited each cycle
system.switch_cpus_10.commit.committed_per_cycle::min_value            0                       # Number of insts commited each cycle
system.switch_cpus_10.commit.committed_per_cycle::max_value            8                       # Number of insts commited each cycle
system.switch_cpus_10.commit.committed_per_cycle::total     51217412                       # Number of insts commited each cycle
system.switch_cpus_10.commit.fp_insts          233616                       # Number of committed floating point instructions.
system.switch_cpus_10.commit.function_calls        11926                       # Number of function calls committed.
system.switch_cpus_10.commit.int_insts       69965109                       # Number of committed integer instructions.
system.switch_cpus_10.commit.loads            7244487                       # Number of loads committed
system.switch_cpus_10.commit.membars                0                       # Number of memory barriers committed
system.switch_cpus_10.commit.op_class_0::No_OpClass         1226      0.00%      0.00% # Class of committed instruction
system.switch_cpus_10.commit.op_class_0::IntAlu     57844799     82.68%     82.68% # Class of committed instruction
system.switch_cpus_10.commit.op_class_0::IntMult      1755525      2.51%     85.19% # Class of committed instruction
system.switch_cpus_10.commit.op_class_0::IntDiv            0      0.00%     85.19% # Class of committed instruction
system.switch_cpus_10.commit.op_class_0::FloatAdd            0      0.00%     85.19% # Class of committed instruction
system.switch_cpus_10.commit.op_class_0::FloatCmp            0      0.00%     85.19% # Class of committed instruction
system.switch_cpus_10.commit.op_class_0::FloatCvt            0      0.00%     85.19% # Class of committed instruction
system.switch_cpus_10.commit.op_class_0::FloatMult            0      0.00%     85.19% # Class of committed instruction
system.switch_cpus_10.commit.op_class_0::FloatMultAcc            0      0.00%     85.19% # Class of committed instruction
system.switch_cpus_10.commit.op_class_0::FloatDiv            0      0.00%     85.19% # Class of committed instruction
system.switch_cpus_10.commit.op_class_0::FloatMisc            0      0.00%     85.19% # Class of committed instruction
system.switch_cpus_10.commit.op_class_0::FloatSqrt            0      0.00%     85.19% # Class of committed instruction
system.switch_cpus_10.commit.op_class_0::SimdAdd            0      0.00%     85.19% # Class of committed instruction
system.switch_cpus_10.commit.op_class_0::SimdAddAcc            0      0.00%     85.19% # Class of committed instruction
system.switch_cpus_10.commit.op_class_0::SimdAlu            0      0.00%     85.19% # Class of committed instruction
system.switch_cpus_10.commit.op_class_0::SimdCmp            0      0.00%     85.19% # Class of committed instruction
system.switch_cpus_10.commit.op_class_0::SimdCvt            0      0.00%     85.19% # Class of committed instruction
system.switch_cpus_10.commit.op_class_0::SimdMisc            0      0.00%     85.19% # Class of committed instruction
system.switch_cpus_10.commit.op_class_0::SimdMult            0      0.00%     85.19% # Class of committed instruction
system.switch_cpus_10.commit.op_class_0::SimdMultAcc            0      0.00%     85.19% # Class of committed instruction
system.switch_cpus_10.commit.op_class_0::SimdShift            0      0.00%     85.19% # Class of committed instruction
system.switch_cpus_10.commit.op_class_0::SimdShiftAcc            0      0.00%     85.19% # Class of committed instruction
system.switch_cpus_10.commit.op_class_0::SimdDiv            0      0.00%     85.19% # Class of committed instruction
system.switch_cpus_10.commit.op_class_0::SimdSqrt            0      0.00%     85.19% # Class of committed instruction
system.switch_cpus_10.commit.op_class_0::SimdFloatAdd            0      0.00%     85.19% # Class of committed instruction
system.switch_cpus_10.commit.op_class_0::SimdFloatAlu            0      0.00%     85.19% # Class of committed instruction
system.switch_cpus_10.commit.op_class_0::SimdFloatCmp            0      0.00%     85.19% # Class of committed instruction
system.switch_cpus_10.commit.op_class_0::SimdFloatCvt            0      0.00%     85.19% # Class of committed instruction
system.switch_cpus_10.commit.op_class_0::SimdFloatDiv            0      0.00%     85.19% # Class of committed instruction
system.switch_cpus_10.commit.op_class_0::SimdFloatMisc            0      0.00%     85.19% # Class of committed instruction
system.switch_cpus_10.commit.op_class_0::SimdFloatMult            0      0.00%     85.19% # Class of committed instruction
system.switch_cpus_10.commit.op_class_0::SimdFloatMultAcc            0      0.00%     85.19% # Class of committed instruction
system.switch_cpus_10.commit.op_class_0::SimdFloatSqrt            0      0.00%     85.19% # Class of committed instruction
system.switch_cpus_10.commit.op_class_0::SimdReduceAdd            0      0.00%     85.19% # Class of committed instruction
system.switch_cpus_10.commit.op_class_0::SimdReduceAlu            0      0.00%     85.19% # Class of committed instruction
system.switch_cpus_10.commit.op_class_0::SimdReduceCmp            0      0.00%     85.19% # Class of committed instruction
system.switch_cpus_10.commit.op_class_0::SimdFloatReduceAdd            0      0.00%     85.19% # Class of committed instruction
system.switch_cpus_10.commit.op_class_0::SimdFloatReduceCmp            0      0.00%     85.19% # Class of committed instruction
system.switch_cpus_10.commit.op_class_0::SimdAes            0      0.00%     85.19% # Class of committed instruction
system.switch_cpus_10.commit.op_class_0::SimdAesMix            0      0.00%     85.19% # Class of committed instruction
system.switch_cpus_10.commit.op_class_0::SimdSha1Hash            0      0.00%     85.19% # Class of committed instruction
system.switch_cpus_10.commit.op_class_0::SimdSha1Hash2            0      0.00%     85.19% # Class of committed instruction
system.switch_cpus_10.commit.op_class_0::SimdSha256Hash            0      0.00%     85.19% # Class of committed instruction
system.switch_cpus_10.commit.op_class_0::SimdSha256Hash2            0      0.00%     85.19% # Class of committed instruction
system.switch_cpus_10.commit.op_class_0::SimdShaSigma2            0      0.00%     85.19% # Class of committed instruction
system.switch_cpus_10.commit.op_class_0::SimdShaSigma3            0      0.00%     85.19% # Class of committed instruction
system.switch_cpus_10.commit.op_class_0::SimdPredAlu            0      0.00%     85.19% # Class of committed instruction
system.switch_cpus_10.commit.op_class_0::MemRead      7127679     10.19%     95.37% # Class of committed instruction
system.switch_cpus_10.commit.op_class_0::MemWrite      3003625      4.29%     99.67% # Class of committed instruction
system.switch_cpus_10.commit.op_class_0::FloatMemRead       116808      0.17%     99.83% # Class of committed instruction
system.switch_cpus_10.commit.op_class_0::FloatMemWrite       116808      0.17%    100.00% # Class of committed instruction
system.switch_cpus_10.commit.op_class_0::IprAccess            0      0.00%    100.00% # Class of committed instruction
system.switch_cpus_10.commit.op_class_0::InstPrefetch            0      0.00%    100.00% # Class of committed instruction
system.switch_cpus_10.commit.op_class_0::total     69966470                       # Class of committed instruction
system.switch_cpus_10.commit.refs            10364920                       # Number of memory references committed
system.switch_cpus_10.commit.swp_count              0                       # Number of s/w prefetches committed
system.switch_cpus_10.commit.vec_insts              0                       # Number of committed Vector instructions.
system.switch_cpus_10.committedInsts         48234955                       # Number of Instructions Simulated
system.switch_cpus_10.committedOps           69966470                       # Number of Ops (including micro ops) Simulated
system.switch_cpus_10.cpi                    1.281751                       # CPI: Cycles Per Instruction
system.switch_cpus_10.cpi_total              1.281751                       # CPI: Total CPI of All Threads
system.switch_cpus_10.decode.BlockedCycles     11908465                       # Number of cycles decode is blocked
system.switch_cpus_10.decode.DecodedInsts    168318078                       # Number of instructions handled by decode
system.switch_cpus_10.decode.IdleCycles      22631004                       # Number of cycles decode is idle
system.switch_cpus_10.decode.RunCycles       24697384                       # Number of cycles decode is running
system.switch_cpus_10.decode.SquashCycles      1982058                       # Number of cycles decode is squashing
system.switch_cpus_10.decode.UnblockCycles       605555                       # Number of cycles decode is unblocking
system.switch_cpus_10.dtb.rdAccesses         14031114                       # TLB accesses on read requests
system.switch_cpus_10.dtb.rdMisses               1015                       # TLB misses on read requests
system.switch_cpus_10.dtb.wrAccesses          5473570                       # TLB accesses on write requests
system.switch_cpus_10.dtb.wrMisses                241                       # TLB misses on write requests
system.switch_cpus_10.fetch.Branches         14405667                       # Number of branches that fetch encountered
system.switch_cpus_10.fetch.CacheLines       13765735                       # Number of cache lines fetched
system.switch_cpus_10.fetch.Cycles           31707402                       # Number of cycles fetch has run and was not squashing or blocked
system.switch_cpus_10.fetch.IcacheSquashes       883246                       # Number of outstanding Icache misses that were squashed
system.switch_cpus_10.fetch.IcacheWaitRetryStallCycles           84                       # Number of stall cycles due to full MSHR
system.switch_cpus_10.fetch.Insts           122639309                       # Number of instructions fetch has processed
system.switch_cpus_10.fetch.MiscStallCycles           50                       # Number of cycles fetch has spent waiting on interrupts, or bad addresses, or out of MSHRs
system.switch_cpus_10.fetch.SquashCycles      3964116                       # Number of cycles fetch has spent squashing
system.switch_cpus_10.fetch.branchRate       0.233006                       # Number of branch fetches per cycle
system.switch_cpus_10.fetch.icacheStallCycles     28134877                       # Number of cycles fetch is stalled on an Icache miss
system.switch_cpus_10.fetch.predictedBranches      4712570                       # Number of branches that fetch has predicted taken
system.switch_cpus_10.fetch.rate             1.983646                       # Number of inst fetches per cycle
system.switch_cpus_10.fetch.rateDist::samples     61824471                       # Number of instructions fetched each cycle (Total)
system.switch_cpus_10.fetch.rateDist::mean     2.876691                       # Number of instructions fetched each cycle (Total)
system.switch_cpus_10.fetch.rateDist::stdev     3.528894                       # Number of instructions fetched each cycle (Total)
system.switch_cpus_10.fetch.rateDist::underflows            0      0.00%      0.00% # Number of instructions fetched each cycle (Total)
system.switch_cpus_10.fetch.rateDist::0      33625268     54.39%     54.39% # Number of instructions fetched each cycle (Total)
system.switch_cpus_10.fetch.rateDist::1       1673369      2.71%     57.09% # Number of instructions fetched each cycle (Total)
system.switch_cpus_10.fetch.rateDist::2       1773435      2.87%     59.96% # Number of instructions fetched each cycle (Total)
system.switch_cpus_10.fetch.rateDist::3       1715465      2.77%     62.74% # Number of instructions fetched each cycle (Total)
system.switch_cpus_10.fetch.rateDist::4       1601820      2.59%     65.33% # Number of instructions fetched each cycle (Total)
system.switch_cpus_10.fetch.rateDist::5       2249106      3.64%     68.97% # Number of instructions fetched each cycle (Total)
system.switch_cpus_10.fetch.rateDist::6       1210809      1.96%     70.93% # Number of instructions fetched each cycle (Total)
system.switch_cpus_10.fetch.rateDist::7       1236011      2.00%     72.92% # Number of instructions fetched each cycle (Total)
system.switch_cpus_10.fetch.rateDist::8      16739188     27.08%    100.00% # Number of instructions fetched each cycle (Total)
system.switch_cpus_10.fetch.rateDist::overflows            0      0.00%    100.00% # Number of instructions fetched each cycle (Total)
system.switch_cpus_10.fetch.rateDist::min_value            0                       # Number of instructions fetched each cycle (Total)
system.switch_cpus_10.fetch.rateDist::max_value            8                       # Number of instructions fetched each cycle (Total)
system.switch_cpus_10.fetch.rateDist::total     61824471                       # Number of instructions fetched each cycle (Total)
system.switch_cpus_10.fp_regfile_reads        1075772                       # number of floating regfile reads
system.switch_cpus_10.fp_regfile_writes        964122                       # number of floating regfile writes
system.switch_cpus_10.idleCycles                  739                       # Total number of cycles that the CPU has spent unscheduled due to idling
system.switch_cpus_10.iew.branchMispredicts      2637177                       # Number of branch mispredicts detected at execute
system.switch_cpus_10.iew.exec_branches       8326357                       # Number of branches executed
system.switch_cpus_10.iew.exec_nop                  0                       # number of nop insts executed
system.switch_cpus_10.iew.exec_rate          1.776267                       # Inst execution rate
system.switch_cpus_10.iew.exec_refs          19503650                       # number of memory reference insts executed
system.switch_cpus_10.iew.exec_stores         5470514                       # Number of stores executed
system.switch_cpus_10.iew.exec_swp                  0                       # number of swp insts executed
system.switch_cpus_10.iew.iewBlockCycles      9061347                       # Number of cycles IEW is blocking
system.switch_cpus_10.iew.iewDispLoadInsts     16713424                       # Number of dispatched load instructions
system.switch_cpus_10.iew.iewDispNonSpecInsts            0                       # Number of dispatched non-speculative instructions
system.switch_cpus_10.iew.iewDispSquashedInsts       150851                       # Number of squashed instructions skipped by dispatch
system.switch_cpus_10.iew.iewDispStoreInsts      8024011                       # Number of dispatched store instructions
system.switch_cpus_10.iew.iewDispatchedInsts    145408751                       # Number of instructions dispatched to IQ
system.switch_cpus_10.iew.iewExecLoadInsts     14033136                       # Number of load instructions executed
system.switch_cpus_10.iew.iewExecSquashedInsts      3083562                       # Number of squashed instructions skipped in execute
system.switch_cpus_10.iew.iewExecutedInsts    109818094                       # Number of executed instructions
system.switch_cpus_10.iew.iewIQFullEvents         7583                       # Number of times the IQ has become full, causing a stall
system.switch_cpus_10.iew.iewIdleCycles             0                       # Number of cycles IEW is idle
system.switch_cpus_10.iew.iewLSQFullEvents       783660                       # Number of times the LSQ has become full, causing a stall
system.switch_cpus_10.iew.iewSquashCycles      1982058                       # Number of cycles IEW is squashing
system.switch_cpus_10.iew.iewUnblockCycles       784500                       # Number of cycles IEW is unblocking
system.switch_cpus_10.iew.lsq.thread0.blockedLoads            0                       # Number of blocked loads due to partial load-store forwarding
system.switch_cpus_10.iew.lsq.thread0.cacheBlocked          443                       # Number of times an access to memory failed due to the cache being blocked
system.switch_cpus_10.iew.lsq.thread0.forwLoads       752808                       # Number of loads that had data forwarded from stores
system.switch_cpus_10.iew.lsq.thread0.ignoredResponses         1662                       # Number of memory responses ignored because the instruction is squashed
system.switch_cpus_10.iew.lsq.thread0.invAddrLoads            0                       # Number of loads ignored due to an invalid address
system.switch_cpus_10.iew.lsq.thread0.invAddrSwpfs            0                       # Number of software prefetches ignored due to an invalid address
system.switch_cpus_10.iew.lsq.thread0.memOrderViolation         5227                       # Number of memory ordering violations
system.switch_cpus_10.iew.lsq.thread0.rescheduledLoads         5579                       # Number of loads that were rescheduled
system.switch_cpus_10.iew.lsq.thread0.squashedLoads      9468937                       # Number of loads squashed
system.switch_cpus_10.iew.lsq.thread0.squashedStores      4903578                       # Number of stores squashed
system.switch_cpus_10.iew.memOrderViolationEvents         5227                       # Number of memory order violations
system.switch_cpus_10.iew.predictedNotTakenIncorrect      2223395                       # Number of branches that were predicted not taken incorrectly
system.switch_cpus_10.iew.predictedTakenIncorrect       413782                       # Number of branches that were predicted taken incorrectly
system.switch_cpus_10.iew.wb_consumers      150220117                       # num instructions consuming a value
system.switch_cpus_10.iew.wb_count          107239813                       # cumulative count of insts written-back
system.switch_cpus_10.iew.wb_fanout          0.567068                       # average fanout of values written-back
system.switch_cpus_10.iew.wb_producers       85184960                       # num instructions producing a value
system.switch_cpus_10.iew.wb_rate            1.734564                       # insts written-back per cycle
system.switch_cpus_10.iew.wb_sent           108357387                       # cumulative count of insts sent to commit
system.switch_cpus_10.int_regfile_reads     176235664                       # number of integer regfile reads
system.switch_cpus_10.int_regfile_writes     94841723                       # number of integer regfile writes
system.switch_cpus_10.ipc                    0.780183                       # IPC: Instructions Per Cycle
system.switch_cpus_10.ipc_total              0.780183                       # IPC: Total IPC of All Threads
system.switch_cpus_10.iq.FU_type_0::No_OpClass       536086      0.47%      0.47% # Type of FU issued
system.switch_cpus_10.iq.FU_type_0::IntAlu     89899450     79.63%     80.10% # Type of FU issued
system.switch_cpus_10.iq.FU_type_0::IntMult      1776467      1.57%     81.67% # Type of FU issued
system.switch_cpus_10.iq.FU_type_0::IntDiv            0      0.00%     81.67% # Type of FU issued
system.switch_cpus_10.iq.FU_type_0::FloatAdd            0      0.00%     81.67% # Type of FU issued
system.switch_cpus_10.iq.FU_type_0::FloatCmp            0      0.00%     81.67% # Type of FU issued
system.switch_cpus_10.iq.FU_type_0::FloatCvt            0      0.00%     81.67% # Type of FU issued
system.switch_cpus_10.iq.FU_type_0::FloatMult            0      0.00%     81.67% # Type of FU issued
system.switch_cpus_10.iq.FU_type_0::FloatMultAcc            0      0.00%     81.67% # Type of FU issued
system.switch_cpus_10.iq.FU_type_0::FloatDiv            0      0.00%     81.67% # Type of FU issued
system.switch_cpus_10.iq.FU_type_0::FloatMisc            0      0.00%     81.67% # Type of FU issued
system.switch_cpus_10.iq.FU_type_0::FloatSqrt            0      0.00%     81.67% # Type of FU issued
system.switch_cpus_10.iq.FU_type_0::SimdAdd            0      0.00%     81.67% # Type of FU issued
system.switch_cpus_10.iq.FU_type_0::SimdAddAcc            0      0.00%     81.67% # Type of FU issued
system.switch_cpus_10.iq.FU_type_0::SimdAlu            0      0.00%     81.67% # Type of FU issued
system.switch_cpus_10.iq.FU_type_0::SimdCmp            0      0.00%     81.67% # Type of FU issued
system.switch_cpus_10.iq.FU_type_0::SimdCvt            0      0.00%     81.67% # Type of FU issued
system.switch_cpus_10.iq.FU_type_0::SimdMisc            0      0.00%     81.67% # Type of FU issued
system.switch_cpus_10.iq.FU_type_0::SimdMult            0      0.00%     81.67% # Type of FU issued
system.switch_cpus_10.iq.FU_type_0::SimdMultAcc            0      0.00%     81.67% # Type of FU issued
system.switch_cpus_10.iq.FU_type_0::SimdShift            0      0.00%     81.67% # Type of FU issued
system.switch_cpus_10.iq.FU_type_0::SimdShiftAcc            0      0.00%     81.67% # Type of FU issued
system.switch_cpus_10.iq.FU_type_0::SimdDiv            0      0.00%     81.67% # Type of FU issued
system.switch_cpus_10.iq.FU_type_0::SimdSqrt            0      0.00%     81.67% # Type of FU issued
system.switch_cpus_10.iq.FU_type_0::SimdFloatAdd            0      0.00%     81.67% # Type of FU issued
system.switch_cpus_10.iq.FU_type_0::SimdFloatAlu            0      0.00%     81.67% # Type of FU issued
system.switch_cpus_10.iq.FU_type_0::SimdFloatCmp            0      0.00%     81.67% # Type of FU issued
system.switch_cpus_10.iq.FU_type_0::SimdFloatCvt            0      0.00%     81.67% # Type of FU issued
system.switch_cpus_10.iq.FU_type_0::SimdFloatDiv            0      0.00%     81.67% # Type of FU issued
system.switch_cpus_10.iq.FU_type_0::SimdFloatMisc            0      0.00%     81.67% # Type of FU issued
system.switch_cpus_10.iq.FU_type_0::SimdFloatMult            0      0.00%     81.67% # Type of FU issued
system.switch_cpus_10.iq.FU_type_0::SimdFloatMultAcc            0      0.00%     81.67% # Type of FU issued
system.switch_cpus_10.iq.FU_type_0::SimdFloatSqrt            0      0.00%     81.67% # Type of FU issued
system.switch_cpus_10.iq.FU_type_0::SimdReduceAdd            0      0.00%     81.67% # Type of FU issued
system.switch_cpus_10.iq.FU_type_0::SimdReduceAlu            0      0.00%     81.67% # Type of FU issued
system.switch_cpus_10.iq.FU_type_0::SimdReduceCmp            0      0.00%     81.67% # Type of FU issued
system.switch_cpus_10.iq.FU_type_0::SimdFloatReduceAdd            0      0.00%     81.67% # Type of FU issued
system.switch_cpus_10.iq.FU_type_0::SimdFloatReduceCmp            0      0.00%     81.67% # Type of FU issued
system.switch_cpus_10.iq.FU_type_0::SimdAes            0      0.00%     81.67% # Type of FU issued
system.switch_cpus_10.iq.FU_type_0::SimdAesMix            0      0.00%     81.67% # Type of FU issued
system.switch_cpus_10.iq.FU_type_0::SimdSha1Hash            0      0.00%     81.67% # Type of FU issued
system.switch_cpus_10.iq.FU_type_0::SimdSha1Hash2            0      0.00%     81.67% # Type of FU issued
system.switch_cpus_10.iq.FU_type_0::SimdSha256Hash            0      0.00%     81.67% # Type of FU issued
system.switch_cpus_10.iq.FU_type_0::SimdSha256Hash2            0      0.00%     81.67% # Type of FU issued
system.switch_cpus_10.iq.FU_type_0::SimdShaSigma2            0      0.00%     81.67% # Type of FU issued
system.switch_cpus_10.iq.FU_type_0::SimdShaSigma3            0      0.00%     81.67% # Type of FU issued
system.switch_cpus_10.iq.FU_type_0::SimdPredAlu            0      0.00%     81.67% # Type of FU issued
system.switch_cpus_10.iq.FU_type_0::MemRead     13690717     12.13%     93.80% # Type of FU issued
system.switch_cpus_10.iq.FU_type_0::MemWrite      4861222      4.31%     98.11% # Type of FU issued
system.switch_cpus_10.iq.FU_type_0::FloatMemRead      1048910      0.93%     99.04% # Type of FU issued
system.switch_cpus_10.iq.FU_type_0::FloatMemWrite      1088804      0.96%    100.00% # Type of FU issued
system.switch_cpus_10.iq.FU_type_0::IprAccess            0      0.00%    100.00% # Type of FU issued
system.switch_cpus_10.iq.FU_type_0::InstPrefetch            0      0.00%    100.00% # Type of FU issued
system.switch_cpus_10.iq.FU_type_0::total    112901656                       # Type of FU issued
system.switch_cpus_10.iq.fp_alu_accesses      2468388                       # Number of floating point alu accesses
system.switch_cpus_10.iq.fp_inst_queue_reads      4615801                       # Number of floating instruction queue reads
system.switch_cpus_10.iq.fp_inst_queue_wakeup_accesses      2034107                       # Number of floating instruction queue wakeup accesses
system.switch_cpus_10.iq.fp_inst_queue_writes      4163292                       # Number of floating instruction queue writes
system.switch_cpus_10.iq.fu_busy_cnt          1384971                       # FU busy when requested
system.switch_cpus_10.iq.fu_busy_rate        0.012267                       # FU busy rate (busy events/executed inst)
system.switch_cpus_10.iq.fu_full::No_OpClass            0      0.00%      0.00% # attempts to use FU when none available
system.switch_cpus_10.iq.fu_full::IntAlu       871077     62.89%     62.89% # attempts to use FU when none available
system.switch_cpus_10.iq.fu_full::IntMult            0      0.00%     62.89% # attempts to use FU when none available
system.switch_cpus_10.iq.fu_full::IntDiv            0      0.00%     62.89% # attempts to use FU when none available
system.switch_cpus_10.iq.fu_full::FloatAdd            0      0.00%     62.89% # attempts to use FU when none available
system.switch_cpus_10.iq.fu_full::FloatCmp            0      0.00%     62.89% # attempts to use FU when none available
system.switch_cpus_10.iq.fu_full::FloatCvt            0      0.00%     62.89% # attempts to use FU when none available
system.switch_cpus_10.iq.fu_full::FloatMult            0      0.00%     62.89% # attempts to use FU when none available
system.switch_cpus_10.iq.fu_full::FloatMultAcc            0      0.00%     62.89% # attempts to use FU when none available
system.switch_cpus_10.iq.fu_full::FloatDiv            0      0.00%     62.89% # attempts to use FU when none available
system.switch_cpus_10.iq.fu_full::FloatMisc            0      0.00%     62.89% # attempts to use FU when none available
system.switch_cpus_10.iq.fu_full::FloatSqrt            0      0.00%     62.89% # attempts to use FU when none available
system.switch_cpus_10.iq.fu_full::SimdAdd            0      0.00%     62.89% # attempts to use FU when none available
system.switch_cpus_10.iq.fu_full::SimdAddAcc            0      0.00%     62.89% # attempts to use FU when none available
system.switch_cpus_10.iq.fu_full::SimdAlu            0      0.00%     62.89% # attempts to use FU when none available
system.switch_cpus_10.iq.fu_full::SimdCmp            0      0.00%     62.89% # attempts to use FU when none available
system.switch_cpus_10.iq.fu_full::SimdCvt            0      0.00%     62.89% # attempts to use FU when none available
system.switch_cpus_10.iq.fu_full::SimdMisc            0      0.00%     62.89% # attempts to use FU when none available
system.switch_cpus_10.iq.fu_full::SimdMult            0      0.00%     62.89% # attempts to use FU when none available
[...]
system.cpu1.l2cache.tags.tagsinuse          78.776726                       # Cycle average of tags in use
system.cpu1.l2cache.tags.total_refs            113308                       # Total number of references to valid blocks.
system.cpu1.l2cache.tags.sampled_refs           30305                       # Sample count of references to valid blocks.
system.cpu1.l2cache.tags.avg_refs            3.738921                       # Average number of references to valid blocks.
system.cpu1.l2cache.tags.warmup_cycle    1293351708033                       # Cycle when the warmup percentage was hit.
system.cpu1.l2cache.tags.occ_blocks::.cpu1.inst     0.003584                       # Average occupied blocks per requestor
system.cpu1.l2cache.tags.occ_blocks::.cpu1.data     0.021062                       # Average occupied blocks per requestor
system.cpu1.l2cache.tags.occ_blocks::.cpu1.dcache.prefetcher     0.133222                       # Average occupied blocks per requestor
system.cpu1.l2cache.tags.occ_blocks::.switch_cpus1.inst     0.680967                       # Average occupied blocks per requestor
system.cpu1.l2cache.tags.occ_blocks::.switch_cpus1.data    10.110634                       # Average occupied blocks per requestor
system.cpu1.l2cache.tags.occ_blocks::.switch_cpus_11.inst     0.187443                       # Average occupied blocks per requestor
system.cpu1.l2cache.tags.occ_blocks::.switch_cpus_11.data    67.639815                       # Average occupied blocks per requestor
system.cpu1.l2cache.tags.occ_percent::.cpu1.inst     0.000001                       # Average percentage of cache occupancy
system.cpu1.l2cache.tags.occ_percent::.cpu1.data     0.000005                       # Average percentage of cache occupancy
system.cpu1.l2cache.tags.occ_percent::.cpu1.dcache.prefetcher     0.000033                       # Average percentage of cache occupancy
system.cpu1.l2cache.tags.occ_percent::.switch_cpus1.inst     0.000166                       # Average percentage of cache occupancy
system.cpu1.l2cache.tags.occ_percent::.switch_cpus1.data     0.002468                       # Average percentage of cache occupancy
system.cpu1.l2cache.tags.occ_percent::.switch_cpus_11.inst     0.000046                       # Average percentage of cache occupancy
system.cpu1.l2cache.tags.occ_percent::.switch_cpus_11.data     0.016514                       # Average percentage of cache occupancy
system.cpu1.l2cache.tags.occ_percent::total     0.019233                       # Average percentage of cache occupancy
system.cpu1.l2cache.tags.occ_task_id_blocks::1022            6                       # Occupied blocks per task id
system.cpu1.l2cache.tags.occ_task_id_blocks::1024         4090                       # Occupied blocks per task id
system.cpu1.l2cache.tags.age_task_id_blocks_1022::3            2                       # Occupied blocks per task id
system.cpu1.l2cache.tags.age_task_id_blocks_1022::4            4                       # Occupied blocks per task id
system.cpu1.l2cache.tags.age_task_id_blocks_1024::1           60                       # Occupied blocks per task id
system.cpu1.l2cache.tags.age_task_id_blocks_1024::2         1032                       # Occupied blocks per task id
system.cpu1.l2cache.tags.age_task_id_blocks_1024::3         2489                       # Occupied blocks per task id
system.cpu1.l2cache.tags.age_task_id_blocks_1024::4          509                       # Occupied blocks per task id
system.cpu1.l2cache.tags.occ_task_id_percent::1022     0.001465                       # Percentage of cache occupancy per task id
system.cpu1.l2cache.tags.occ_task_id_percent::1024     0.998535                       # Percentage of cache occupancy per task id
system.cpu1.l2cache.tags.tag_accesses         1843361                       # Number of tag accesses
system.cpu1.l2cache.tags.data_accesses        1843361                       # Number of data accesses
system.cpu1.toL2Bus.pwrStateResidencyTicks::UNDEFINED 1321178793990                       # Cumulative time (in ticks) in various power states
system.cpu1.toL2Bus.trans_dist::ReadResp        56931                       # Transaction distribution
system.cpu1.toL2Bus.trans_dist::WritebackDirty          185                       # Transaction distribution
system.cpu1.toL2Bus.trans_dist::CleanEvict        82545                       # Transaction distribution
system.cpu1.toL2Bus.trans_dist::ReadExReq          148                       # Transaction distribution
system.cpu1.toL2Bus.trans_dist::ReadExResp          148                       # Transaction distribution
system.cpu1.toL2Bus.trans_dist::ReadCleanReq          285                       # Transaction distribution
system.cpu1.toL2Bus.trans_dist::ReadSharedReq        56646                       # Transaction distribution
system.cpu1.toL2Bus.pkt_count_system.cpu1.icache.mem_side::system.cpu1.l2cache.cpu_side          570                       # Packet count per connected master and slave (bytes)
system.cpu1.toL2Bus.pkt_count_system.cpu1.dcache.mem_side::system.cpu1.l2cache.cpu_side       169870                       # Packet count per connected master and slave (bytes)
system.cpu1.toL2Bus.pkt_count::total           170440                       # Packet count per connected master and slave (bytes)
system.cpu1.toL2Bus.pkt_size_system.cpu1.icache.mem_side::system.cpu1.l2cache.cpu_side        18240                       # Cumulative packet size per connected master and slave (bytes)
system.cpu1.toL2Bus.pkt_size_system.cpu1.dcache.mem_side::system.cpu1.l2cache.cpu_side      3646144                       # Cumulative packet size per connected master and slave (bytes)
system.cpu1.toL2Bus.pkt_size::total           3664384                       # Cumulative packet size per connected master and slave (bytes)
system.cpu1.toL2Bus.snoops                      26448                       # Total snoops (count)
system.cpu1.toL2Bus.snoopTraffic                  512                       # Total snoop traffic (bytes)
system.cpu1.toL2Bus.snoop_fanout::samples        83527                       # Request fanout histogram
system.cpu1.toL2Bus.snoop_fanout::mean       0.006573                       # Request fanout histogram
system.cpu1.toL2Bus.snoop_fanout::stdev      0.080806                       # Request fanout histogram
system.cpu1.toL2Bus.snoop_fanout::underflows            0      0.00%      0.00% # Request fanout histogram
system.cpu1.toL2Bus.snoop_fanout::0             82978     99.34%     99.34% # Request fanout histogram
system.cpu1.toL2Bus.snoop_fanout::1               549      0.66%    100.00% # Request fanout histogram
system.cpu1.toL2Bus.snoop_fanout::2                 0      0.00%    100.00% # Request fanout histogram
system.cpu1.toL2Bus.snoop_fanout::3                 0      0.00%    100.00% # Request fanout histogram
system.cpu1.toL2Bus.snoop_fanout::4                 0      0.00%    100.00% # Request fanout histogram
system.cpu1.toL2Bus.snoop_fanout::overflows            0      0.00%    100.00% # Request fanout histogram
system.cpu1.toL2Bus.snoop_fanout::min_value            0                       # Request fanout histogram
system.cpu1.toL2Bus.snoop_fanout::max_value            1                       # Request fanout histogram
system.cpu1.toL2Bus.snoop_fanout::total         83527                       # Request fanout histogram
system.cpu1.toL2Bus.reqLayer0.occupancy      47455345                       # Layer occupancy (ticks)
system.cpu1.toL2Bus.reqLayer0.utilization          0.2                       # Layer utilization (%)
system.cpu1.toL2Bus.respLayer1.occupancy     71048043                       # Layer occupancy (ticks)
system.cpu1.toL2Bus.respLayer1.utilization          0.3                       # Layer utilization (%)
system.cpu1.toL2Bus.respLayer0.occupancy       355284                       # Layer occupancy (ticks)
system.cpu1.toL2Bus.respLayer0.utilization          0.0                       # Layer utilization (%)
system.switch_cpus_10.pwrStateResidencyTicks::OFF  27827086374                       # Cumulative time (in ticks) in various power states
system.switch_cpus_10.dtb.walker.pwrStateResidencyTicks::UNDEFINED 1321178793990                       # Cumulative time (in ticks) in various power states
system.switch_cpus_10.itb.walker.pwrStateResidencyTicks::UNDEFINED 1321178793990                       # Cumulative time (in ticks) in various power states
system.switch_cpus_11.pwrStateResidencyTicks::OFF  27827086374                       # Cumulative time (in ticks) in various power states
system.switch_cpus_11.dtb.walker.pwrStateResidencyTicks::UNDEFINED 1321178793990                       # Cumulative time (in ticks) in various power states
system.switch_cpus_11.itb.walker.pwrStateResidencyTicks::UNDEFINED 1321178793990                       # Cumulative time (in ticks) in various power states
system.cpu_voltage_domain.voltage                   1                       # Voltage in Volts
system.switch_cpus1.numPwrStateTransitions            1                       # Number of power state transitions
system.switch_cpus1.pwrStateResidencyTicks::UNDEFINED 1293351707616                       # Cumulative time (in ticks) in various power states
system.switch_cpus1.pwrStateResidencyTicks::OFF  27827086374                       # Cumulative time (in ticks) in various power states
system.switch_cpus1.dtb.walker.pwrStateResidencyTicks::UNDEFINED 1321178793990                       # Cumulative time (in ticks) in various power states
system.switch_cpus1.itb.walker.pwrStateResidencyTicks::UNDEFINED 1321178793990                       # Cumulative time (in ticks) in various power states
system.mem_ctrls.pwrStateResidencyTicks::UNDEFINED 1321178793990                       # Cumulative time (in ticks) in various power states
system.mem_ctrls.bytes_read::.cpu0.inst           128                       # Number of bytes read from this memory
system.mem_ctrls.bytes_read::.cpu0.dcache.prefetcher       278336                       # Number of bytes read from this memory
system.mem_ctrls.bytes_read::.cpu1.inst            64                       # Number of bytes read from this memory
system.mem_ctrls.bytes_read::.cpu1.data            64                       # Number of bytes read from this memory
system.mem_ctrls.bytes_read::.cpu1.dcache.prefetcher         1024                       # Number of bytes read from this memory
system.mem_ctrls.bytes_read::.switch_cpus0.inst        16960                       # Number of bytes read from this memory
system.mem_ctrls.bytes_read::.switch_cpus0.data        54656                       # Number of bytes read from this memory
system.mem_ctrls.bytes_read::.switch_cpus1.inst        12672                       # Number of bytes read from this memory
system.mem_ctrls.bytes_read::.switch_cpus1.data        68864                       # Number of bytes read from this memory
system.mem_ctrls.bytes_read::.switch_cpus_10.inst         4928                       # Number of bytes read from this memory
system.mem_ctrls.bytes_read::.switch_cpus_10.data       537664                       # Number of bytes read from this memory
system.mem_ctrls.bytes_read::.switch_cpus_11.inst         5504                       # Number of bytes read from this memory
system.mem_ctrls.bytes_read::.switch_cpus_11.data      1849728                       # Number of bytes read from this memory
system.mem_ctrls.bytes_read::total            2830592                       # Number of bytes read from this memory
system.mem_ctrls.bytes_inst_read::.cpu0.inst          128                       # Number of instructions bytes read from this memory
system.mem_ctrls.bytes_inst_read::.cpu1.inst           64                       # Number of instructions bytes read from this memory
system.mem_ctrls.bytes_inst_read::.switch_cpus0.inst        16960                       # Number of instructions bytes read from this memory
system.mem_ctrls.bytes_inst_read::.switch_cpus1.inst        12672                       # Number of instructions bytes read from this memory
system.mem_ctrls.bytes_inst_read::.switch_cpus_10.inst         4928                       # Number of instructions bytes read from this memory
system.mem_ctrls.bytes_inst_read::.switch_cpus_11.inst         5504                       # Number of instructions bytes read from this memory
system.mem_ctrls.bytes_inst_read::total         40256                       # Number of instructions bytes read from this memory
system.mem_ctrls.bytes_written::.switch_cpus1.data           64                       # Number of bytes written to this memory
system.mem_ctrls.bytes_written::total              64                       # Number of bytes written to this memory
system.mem_ctrls.num_reads::.cpu0.inst              2                       # Number of read requests responded to by this memory
system.mem_ctrls.num_reads::.cpu0.dcache.prefetcher         4349                       # Number of read requests responded to by this memory
system.mem_ctrls.num_reads::.cpu1.inst              1                       # Number of read requests responded to by this memory
system.mem_ctrls.num_reads::.cpu1.data              1                       # Number of read requests responded to by this memory
system.mem_ctrls.num_reads::.cpu1.dcache.prefetcher           16                       # Number of read requests responded to by this memory
system.mem_ctrls.num_reads::.switch_cpus0.inst          265                       # Number of read requests responded to by this memory
system.mem_ctrls.num_reads::.switch_cpus0.data          854                       # Number of read requests responded to by this memory
system.mem_ctrls.num_reads::.switch_cpus1.inst          198                       # Number of read requests responded to by this memory
system.mem_ctrls.num_reads::.switch_cpus1.data         1076                       # Number of read requests responded to by this memory
system.mem_ctrls.num_reads::.switch_cpus_10.inst           77                       # Number of read requests responded to by this memory
system.mem_ctrls.num_reads::.switch_cpus_10.data         8401                       # Number of read requests responded to by this memory
system.mem_ctrls.num_reads::.switch_cpus_11.inst           86                       # Number of read requests responded to by this memory
system.mem_ctrls.num_reads::.switch_cpus_11.data        28902                       # Number of read requests responded to by this memory
system.mem_ctrls.num_reads::total               44228                       # Number of read requests responded to by this memory
system.mem_ctrls.num_writes::.switch_cpus1.data            1                       # Number of write requests responded to by this memory
system.mem_ctrls.num_writes::total                  1                       # Number of write requests responded to by this memory
system.mem_ctrls.bw_read::.cpu0.inst             4600                       # Total read bandwidth from this memory (bytes/s)
system.mem_ctrls.bw_read::.cpu0.dcache.prefetcher     10002341                       # Total read bandwidth from this memory (bytes/s)
system.mem_ctrls.bw_read::.cpu1.inst             2300                       # Total read bandwidth from this memory (bytes/s)
system.mem_ctrls.bw_read::.cpu1.data             2300                       # Total read bandwidth from this memory (bytes/s)
system.mem_ctrls.bw_read::.cpu1.dcache.prefetcher        36799                       # Total read bandwidth from this memory (bytes/s)
system.mem_ctrls.bw_read::.switch_cpus0.inst       609478                       # Total read bandwidth from this memory (bytes/s)
system.mem_ctrls.bw_read::.switch_cpus0.data      1964129                       # Total read bandwidth from this memory (bytes/s)
system.mem_ctrls.bw_read::.switch_cpus1.inst       455384                       # Total read bandwidth from this memory (bytes/s)
system.mem_ctrls.bw_read::.switch_cpus1.data      2474711                       # Total read bandwidth from this memory (bytes/s)
system.mem_ctrls.bw_read::.switch_cpus_10.inst       177094                       # Total read bandwidth from this memory (bytes/s)
system.mem_ctrls.bw_read::.switch_cpus_10.data     19321606                       # Total read bandwidth from this memory (bytes/s)
system.mem_ctrls.bw_read::.switch_cpus_11.inst       197793                       # Total read bandwidth from this memory (bytes/s)
system.mem_ctrls.bw_read::.switch_cpus_11.data     66472213                       # Total read bandwidth from this memory (bytes/s)
system.mem_ctrls.bw_read::total             101720747                       # Total read bandwidth from this memory (bytes/s)
system.mem_ctrls.bw_inst_read::.cpu0.inst         4600                       # Instruction read bandwidth from this memory (bytes/s)
system.mem_ctrls.bw_inst_read::.cpu1.inst         2300                       # Instruction read bandwidth from this memory (bytes/s)
system.mem_ctrls.bw_inst_read::.switch_cpus0.inst       609478                       # Instruction read bandwidth from this memory (bytes/s)
system.mem_ctrls.bw_inst_read::.switch_cpus1.inst       455384                       # Instruction read bandwidth from this memory (bytes/s)
system.mem_ctrls.bw_inst_read::.switch_cpus_10.inst       177094                       # Instruction read bandwidth from this memory (bytes/s)
system.mem_ctrls.bw_inst_read::.switch_cpus_11.inst       197793                       # Instruction read bandwidth from this memory (bytes/s)
system.mem_ctrls.bw_inst_read::total          1446648                       # Instruction read bandwidth from this memory (bytes/s)
system.mem_ctrls.bw_write::.switch_cpus1.data         2300                       # Write bandwidth from this memory (bytes/s)
system.mem_ctrls.bw_write::total                 2300                       # Write bandwidth from this memory (bytes/s)
system.mem_ctrls.bw_total::.cpu0.inst            4600                       # Total bandwidth to/from this memory (bytes/s)
system.mem_ctrls.bw_total::.cpu0.dcache.prefetcher     10002341                       # Total bandwidth to/from this memory (bytes/s)
system.mem_ctrls.bw_total::.cpu1.inst            2300                       # Total bandwidth to/from this memory (bytes/s)
system.mem_ctrls.bw_total::.cpu1.data            2300                       # Total bandwidth to/from this memory (bytes/s)
system.mem_ctrls.bw_total::.cpu1.dcache.prefetcher        36799                       # Total bandwidth to/from this memory (bytes/s)
system.mem_ctrls.bw_total::.switch_cpus0.inst       609478                       # Total bandwidth to/from this memory (bytes/s)
system.mem_ctrls.bw_total::.switch_cpus0.data      1964129                       # Total bandwidth to/from this memory (bytes/s)
system.mem_ctrls.bw_total::.switch_cpus1.inst       455384                       # Total bandwidth to/from this memory (bytes/s)
system.mem_ctrls.bw_total::.switch_cpus1.data      2477011                       # Total bandwidth to/from this memory (bytes/s)
system.mem_ctrls.bw_total::.switch_cpus_10.inst       177094                       # Total bandwidth to/from this memory (bytes/s)
system.mem_ctrls.bw_total::.switch_cpus_10.data     19321606                       # Total bandwidth to/from this memory (bytes/s)
system.mem_ctrls.bw_total::.switch_cpus_11.inst       197793                       # Total bandwidth to/from this memory (bytes/s)
system.mem_ctrls.bw_total::.switch_cpus_11.data     66472213                       # Total bandwidth to/from this memory (bytes/s)
system.mem_ctrls.bw_total::total            101723046                       # Total bandwidth to/from this memory (bytes/s)
system.cpu_clk_domain.clock                       417                       # Clock period in ticks

---------- End Simulation Statistics   ----------
