
---------- Begin Simulation Statistics ----------
final_tick                               1314440003517                       # Number of ticks from beginning of simulation (restored from checkpoints and never reset)
host_inst_rate                                 155201                       # Simulator instruction rate (inst/s)
host_mem_usage                                4538644                       # Number of bytes of host memory used
host_op_rate                                   304495                       # Simulator op (including micro ops) rate (op/s)
host_seconds                                   570.80                       # Real time elapsed on the host
host_tick_rate                               36945253                       # Simulator tick rate (ticks/s)
sim_freq                                 1000000000000                       # Frequency of simulated ticks
sim_insts                                    88588213                       # Number of instructions simulated
sim_ops                                     173805130                       # Number of ops (including micro ops) simulated
sim_seconds                                  0.021088                       # Number of seconds simulated
sim_ticks                                 21088295901                       # Number of ticks simulated
system.cpu0.committedInsts                          2                       # Number of instructions committed
system.cpu0.committedOps                            2                       # Number of ops (including micro ops) committed
system.cpu0.dtb.rdAccesses                          1                       # TLB accesses on read requests
system.cpu0.dtb.rdMisses                            0                       # TLB misses on read requests
system.cpu0.dtb.wrAccesses                          0                       # TLB accesses on write requests
system.cpu0.dtb.wrMisses                            0                       # TLB misses on write requests
system.cpu0.idle_fraction                           0                       # Percentage of idle cycles
system.cpu0.itb.rdAccesses                          0                       # TLB accesses on read requests
system.cpu0.itb.rdMisses                            0                       # TLB misses on read requests
system.cpu0.itb.wrAccesses                          3                       # TLB accesses on write requests
system.cpu0.itb.wrMisses                            0                       # TLB misses on write requests
system.cpu0.not_idle_fraction                       1                       # Percentage of non-idle cycles
system.cpu0.numCycles                               3                       # number of cpu cycles simulated
system.cpu0.numWorkItemsCompleted                   0                       # number of work items this cpu completed
system.cpu0.numWorkItemsStarted                     0                       # number of work items this cpu started
system.cpu0.num_busy_cycles                         3                       # Number of busy cycles
system.cpu0.num_cc_register_reads                   1                       # number of times the CC registers were read
system.cpu0.num_cc_register_writes                  2                       # number of times the CC registers were written
system.cpu0.num_conditional_control_insts            0                       # number of instructions that are conditional controls
system.cpu0.num_fp_alu_accesses                     0                       # Number of float alu accesses
system.cpu0.num_fp_insts                            0                       # number of float instructions
system.cpu0.num_fp_register_reads                   0                       # number of times the floating registers were read
system.cpu0.num_fp_register_writes                  0                       # number of times the floating registers were written
system.cpu0.num_func_calls                          0                       # number of times a function call or return occured
system.cpu0.num_idle_cycles                         0                       # Number of idle cycles
system.cpu0.num_int_alu_accesses                    2                       # Number of integer alu accesses
system.cpu0.num_int_insts                           2                       # number of integer instructions
system.cpu0.num_int_register_reads                  5                       # number of times the integer registers were read
system.cpu0.num_int_register_writes                 2                       # number of times the integer registers were written
system.cpu0.num_load_insts                          1                       # Number of load instructions
system.cpu0.num_mem_refs                            1                       # number of memory refs
system.cpu0.num_store_insts                         0                       # Number of store instructions
system.cpu0.num_vec_alu_accesses                    0                       # Number of vector alu accesses
system.cpu0.num_vec_insts                           0                       # number of vector instructions
system.cpu0.num_vec_register_reads                  0                       # number of times the vector registers were read
system.cpu0.num_vec_register_writes                 0                       # number of times the vector registers were written
system.cpu0.op_class::No_OpClass                    0      0.00%      0.00% # Class of executed instruction
system.cpu0.op_class::IntAlu                        1     50.00%     50.00% # Class of executed instruction
system.cpu0.op_class::IntMult                       0      0.00%     50.00% # Class of executed instruction
system.cpu0.op_class::IntDiv                        0      0.00%     50.00% # Class of executed instruction
system.cpu0.op_class::FloatAdd                      0      0.00%     50.00% # Class of executed instruction
system.cpu0.op_class::FloatCmp                      0      0.00%     50.00% # Class of executed instruction
system.cpu0.op_class::FloatCvt                      0      0.00%     50.00% # Class of executed instruction
system.cpu0.op_class::FloatMult                     0      0.00%     50.00% # Class of executed instruction
system.cpu0.op_class::FloatMultAcc                  0      0.00%     50.00% # Class of executed instruction
system.cpu0.op_class::FloatDiv                      0      0.00%     50.00% # Class of executed instruction
system.cpu0.op_class::FloatMisc                     0      0.00%     50.00% # Class of executed instruction
system.cpu0.op_class::FloatSqrt                     0      0.00%     50.00% # Class of executed instruction
system.cpu0.op_class::SimdAdd                       0      0.00%     50.00% # Class of executed instruction
system.cpu0.op_class::SimdAddAcc                    0      0.00%     50.00% # Class of executed instruction
system.cpu0.op_class::SimdAlu                       0      0.00%     50.00% # Class of executed instruction
system.cpu0.op_class::SimdCmp                       0      0.00%     50.00% # Class of executed instruction
system.cpu0.op_class::SimdCvt                       0      0.00%     50.00% # Class of executed instruction
system.cpu0.op_class::SimdMisc                      0      0.00%     50.00% # Class of executed instruction
system.cpu0.op_class::SimdMult                      0      0.00%     50.00% # Class of executed instruction
system.cpu0.op_class::SimdMultAcc                   0      0.00%     50.00% # Class of executed instruction
system.cpu0.op_class::SimdShift                     0      0.00%     50.00% # Class of executed instruction
system.cpu0.op_class::SimdShiftAcc                  0      0.00%     50.00% # Class of executed instruction
system.cpu0.op_class::SimdDiv                       0      0.00%     50.00% # Class of executed instruction
system.cpu0.op_class::SimdSqrt                      0      0.00%     50.00% # Class of executed instruction
system.cpu0.op_class::SimdFloatAdd                  0      0.00%     50.00% # Class of executed instruction
system.cpu0.op_class::SimdFloatAlu                  0      0.00%     50.00% # Class of executed instruction
system.cpu0.op_class::SimdFloatCmp                  0      0.00%     50.00% # Class of executed instruction
system.cpu0.op_class::SimdFloatCvt                  0      0.00%     50.00% # Class of executed instruction
system.cpu0.op_class::SimdFloatDiv                  0      0.00%     50.00% # Class of executed instruction
system.cpu0.op_class::SimdFloatMisc                 0      0.00%     50.00% # Class of executed instruction
system.cpu0.op_class::SimdFloatMult                 0      0.00%     50.00% # Class of executed instruction
system.cpu0.op_class::SimdFloatMultAcc              0      0.00%     50.00% # Class of executed instruction
system.cpu0.op_class::SimdFloatSqrt                 0      0.00%     50.00% # Class of executed instruction
system.cpu0.op_class::SimdReduceAdd                 0      0.00%     50.00% # Class of executed instruction
system.cpu0.op_class::SimdReduceAlu                 0      0.00%     50.00% # Class of executed instruction
system.cpu0.op_class::SimdReduceCmp                 0      0.00%     50.00% # Class of executed instruction
system.cpu0.op_class::SimdFloatReduceAdd            0      0.00%     50.00% # Class of executed instruction
system.cpu0.op_class::SimdFloatReduceCmp            0      0.00%     50.00% # Class of executed instruction
system.cpu0.op_class::SimdAes                       0      0.00%     50.00% # Class of executed instruction
system.cpu0.op_class::SimdAesMix                    0      0.00%     50.00% # Class of executed instruction
system.cpu0.op_class::SimdSha1Hash                  0      0.00%     50.00% # Class of executed instruction
system.cpu0.op_class::SimdSha1Hash2                 0      0.00%     50.00% # Class of executed instruction
system.cpu0.op_class::SimdSha256Hash                0      0.00%     50.00% # Class of executed instruction
system.cpu0.op_class::SimdSha256Hash2               0      0.00%     50.00% # Class of executed instruction
system.cpu0.op_class::SimdShaSigma2                 0      0.00%     50.00% # Class of executed instruction
system.cpu0.op_class::SimdShaSigma3                 0      0.00%     50.00% # Class of executed instruction
system.cpu0.op_class::SimdPredAlu                   0      0.00%     50.00% # Class of executed instruction
system.cpu0.op_class::MemRead                       1     50.00%    100.00% # Class of executed instruction
system.cpu0.op_class::MemWrite                      0      0.00%    100.00% # Class of executed instruction
system.cpu0.op_class::FloatMemRead                  0      0.00%    100.00% # Class of executed instruction
system.cpu0.op_class::FloatMemWrite                 0      0.00%    100.00% # Class of executed instruction
system.cpu0.op_class::IprAccess                     0      0.00%    100.00% # Class of executed instruction
system.cpu0.op_class::InstPrefetch                  0      0.00%    100.00% # Class of executed instruction
system.cpu0.op_class::total                         2                       # Class of executed instruction
system.cpu0.toL2Bus.snoop_filter.hit_multi_requests            0                       # Number of requests hitting in the snoop filter with multiple (>1) holders of the requested data.
system.cpu0.toL2Bus.snoop_filter.hit_multi_snoops            1                       # Number of snoops hitting in the snoop filter with multiple (>1) holders of the requested data.
system.cpu0.toL2Bus.snoop_filter.hit_single_requests         6242                       # Number of requests hitting in the snoop filter with a single holder of the requested data.
system.cpu0.toL2Bus.snoop_filter.hit_single_snoops          501                       # Number of snoops hitting in the snoop filter with a single holder of the requested data.
system.cpu0.toL2Bus.snoop_filter.tot_requests        13503                       # Total number of requests made to the snoop filter.
system.cpu0.toL2Bus.snoop_filter.tot_snoops          502                       # Total number of snoops made to the snoop filter.
system.cpu0.toL3Bus.snoop_filter.hit_multi_requests            0                       # Number of requests hitting in the snoop filter with multiple (>1) holders of the requested data.
system.cpu0.toL3Bus.snoop_filter.hit_multi_snoops            0                       # Number of snoops hitting in the snoop filter with multiple (>1) holders of the requested data.
system.cpu0.toL3Bus.snoop_filter.hit_single_requests         1461                       # Number of requests hitting in the snoop filter with a single holder of the requested data.
system.cpu0.toL3Bus.snoop_filter.hit_single_snoops            0                       # Number of snoops hitting in the snoop filter with a single holder of the requested data.
system.cpu0.toL3Bus.snoop_filter.tot_requests         7516                       # Total number of requests made to the snoop filter.
system.cpu0.toL3Bus.snoop_filter.tot_snoops            0                       # Total number of snoops made to the snoop filter.
system.cpu0.workload.numSyscalls                   94                       # Number of system calls
system.cpu1.Branches                                1                       # Number of branches fetched
system.cpu1.committedInsts                          1                       # Number of instructions committed
system.cpu1.committedOps                            5                       # Number of ops (including micro ops) committed
system.cpu1.dtb.rdAccesses                          0                       # TLB accesses on read requests
system.cpu1.dtb.rdMisses                            0                       # TLB misses on read requests
system.cpu1.dtb.wrAccesses                          1                       # TLB accesses on write requests
system.cpu1.dtb.wrMisses                            0                       # TLB misses on write requests
system.cpu1.idle_fraction                           0                       # Percentage of idle cycles
system.cpu1.itb.rdAccesses                          0                       # TLB accesses on read requests
system.cpu1.itb.rdMisses                            0                       # TLB misses on read requests
system.cpu1.itb.wrAccesses                          2                       # TLB accesses on write requests
system.cpu1.itb.wrMisses                            0                       # TLB misses on write requests
system.cpu1.not_idle_fraction                       1                       # Percentage of non-idle cycles
system.cpu1.numCycles                               6                       # number of cpu cycles simulated
system.cpu1.numWorkItemsCompleted                   0                       # number of work items this cpu completed
system.cpu1.numWorkItemsStarted                     0                       # number of work items this cpu started
system.cpu1.num_busy_cycles                         6                       # Number of busy cycles
system.cpu1.num_conditional_control_insts            0                       # number of instructions that are conditional controls
system.cpu1.num_fp_alu_accesses                     0                       # Number of float alu accesses
system.cpu1.num_fp_insts                            0                       # number of float instructions
system.cpu1.num_fp_register_reads                   0                       # number of times the floating registers were read
system.cpu1.num_fp_register_writes                  0                       # number of times the floating registers were written
system.cpu1.num_func_calls                          1                       # number of times a function call or return occured
system.cpu1.num_idle_cycles                         0                       # Number of idle cycles
system.cpu1.num_int_alu_accesses                    5                       # Number of integer alu accesses
system.cpu1.num_int_insts                           5                       # number of integer instructions
system.cpu1.num_int_register_reads                  9                       # number of times the integer registers were read
system.cpu1.num_int_register_writes                 3                       # number of times the integer registers were written
system.cpu1.num_load_insts                          0                       # Number of load instructions
system.cpu1.num_mem_refs                            1                       # number of memory refs
system.cpu1.num_store_insts                         1                       # Number of store instructions
system.cpu1.num_vec_alu_accesses                    0                       # Number of vector alu accesses
system.cpu1.num_vec_insts                           0                       # number of vector instructions
system.cpu1.num_vec_register_reads                  0                       # number of times the vector registers were read
system.cpu1.num_vec_register_writes                 0                       # number of times the vector registers were written
system.cpu1.op_class::No_OpClass                    0      0.00%      0.00% # Class of executed instruction
system.cpu1.op_class::IntAlu                        4     80.00%     80.00% # Class of executed instruction
system.cpu1.op_class::IntMult                       0      0.00%     80.00% # Class of executed instruction
system.cpu1.op_class::IntDiv                        0      0.00%     80.00% # Class of executed instruction
system.cpu1.op_class::FloatAdd                      0      0.00%     80.00% # Class of executed instruction
system.cpu1.op_class::FloatCmp                      0      0.00%     80.00% # Class of executed instruction
system.cpu1.op_class::FloatCvt                      0      0.00%     80.00% # Class of executed instruction
system.cpu1.op_class::FloatMult                     0      0.00%     80.00% # Class of executed instruction
system.cpu1.op_class::FloatMultAcc                  0      0.00%     80.00% # Class of executed instruction
system.cpu1.op_class::FloatDiv                      0      0.00%     80.00% # Class of executed instruction
system.cpu1.op_class::FloatMisc                     0      0.00%     80.00% # Class of executed instruction
system.cpu1.op_class::FloatSqrt                     0      0.00%     80.00% # Class of executed instruction
system.cpu1.op_class::SimdAdd                       0      0.00%     80.00% # Class of executed instruction
system.cpu1.op_class::SimdAddAcc                    0      0.00%     80.00% # Class of executed instruction
system.cpu1.op_class::SimdAlu                       0      0.00%     80.00% # Class of executed instruction
system.cpu1.op_class::SimdCmp                       0      0.00%     80.00% # Class of executed instruction
system.cpu1.op_class::SimdCvt                       0      0.00%     80.00% # Class of executed instruction
system.cpu1.op_class::SimdMisc                      0      0.00%     80.00% # Class of executed instruction
system.cpu1.op_class::SimdMult                      0      0.00%     80.00% # Class of executed instruction
system.cpu1.op_class::SimdMultAcc                   0      0.00%     80.00% # Class of executed instruction
system.cpu1.op_class::SimdShift                     0      0.00%     80.00% # Class of executed instruction
system.cpu1.op_class::SimdShiftAcc                  0      0.00%     80.00% # Class of executed instruction
system.cpu1.op_class::SimdDiv                       0      0.00%     80.00% # Class of executed instruction
system.cpu1.op_class::SimdSqrt                      0      0.00%     80.00% # Class of executed instruction
system.cpu1.op_class::SimdFloatAdd                  0      0.00%     80.00% # Class of executed instruction
system.cpu1.op_class::SimdFloatAlu                  0      0.00%     80.00% # Class of executed instruction
system.cpu1.op_class::SimdFloatCmp                  0      0.00%     80.00% # Class of executed instruction
system.cpu1.op_class::SimdFloatCvt                  0      0.00%     80.00% # Class of executed instruction
system.cpu1.op_class::SimdFloatDiv                  0      0.00%     80.00% # Class of executed instruction
system.cpu1.op_class::SimdFloatMisc                 0      0.00%     80.00% # Class of executed instruction
system.cpu1.op_class::SimdFloatMult                 0      0.00%     80.00% # Class of executed instruction
system.cpu1.op_class::SimdFloatMultAcc              0      0.00%     80.00% # Class of executed instruction
system.cpu1.op_class::SimdFloatSqrt                 0      0.00%     80.00% # Class of executed instruction
system.cpu1.op_class::SimdReduceAdd                 0      0.00%     80.00% # Class of executed instruction
system.cpu1.op_class::SimdReduceAlu                 0      0.00%     80.00% # Class of executed instruction
system.cpu1.op_class::SimdReduceCmp                 0      0.00%     80.00% # Class of executed instruction
system.cpu1.op_class::SimdFloatReduceAdd            0      0.00%     80.00% # Class of executed instruction
system.cpu1.op_class::SimdFloatReduceCmp            0      0.00%     80.00% # Class of executed instruction
system.cpu1.op_class::SimdAes                       0      0.00%     80.00% # Class of executed instruction
system.cpu1.op_class::SimdAesMix                    0      0.00%     80.00% # Class of executed instruction
system.cpu1.op_class::SimdSha1Hash                  0      0.00%     80.00% # Class of executed instruction
system.cpu1.op_class::SimdSha1Hash2                 0      0.00%     80.00% # Class of executed instruction
system.cpu1.op_class::SimdSha256Hash                0      0.00%     80.00% # Class of executed instruction
system.cpu1.op_class::SimdSha256Hash2               0      0.00%     80.00% # Class of executed instruction
system.cpu1.op_class::SimdShaSigma2                 0      0.00%     80.00% # Class of executed instruction
system.cpu1.op_class::SimdShaSigma3                 0      0.00%     80.00% # Class of executed instruction
system.cpu1.op_class::SimdPredAlu                   0      0.00%     80.00% # Class of executed instruction
system.cpu1.op_class::MemRead                       0      0.00%     80.00% # Class of executed instruction
system.cpu1.op_class::MemWrite                      1     20.00%    100.00% # Class of executed instruction
system.cpu1.op_class::FloatMemRead                  0      0.00%    100.00% # Class of executed instruction
system.cpu1.op_class::FloatMemWrite                 0      0.00%    100.00% # Class of executed instruction
system.cpu1.op_class::IprAccess                     0      0.00%    100.00% # Class of executed instruction
system.cpu1.op_class::InstPrefetch                  0      0.00%    100.00% # Class of executed instruction
system.cpu1.op_class::total                         5                       # Class of executed instruction
system.cpu1.toL2Bus.snoop_filter.hit_multi_requests           30                       # Number of requests hitting in the snoop filter with multiple (>1) holders of the requested data.
system.cpu1.toL2Bus.snoop_filter.hit_multi_snoops            0                       # Number of snoops hitting in the snoop filter with multiple (>1) holders of the requested data.
system.cpu1.toL2Bus.snoop_filter.hit_single_requests        41852                       # Number of requests hitting in the snoop filter with a single holder of the requested data.
system.cpu1.toL2Bus.snoop_filter.hit_single_snoops          332                       # Number of snoops hitting in the snoop filter with a single holder of the requested data.
system.cpu1.toL2Bus.snoop_filter.tot_requests        84502                       # Total number of requests made to the snoop filter.
system.cpu1.toL2Bus.snoop_filter.tot_snoops          332                       # Total number of snoops made to the snoop filter.
system.cpu1.toL3Bus.snoop_filter.hit_multi_requests            0                       # Number of requests hitting in the snoop filter with multiple (>1) holders of the requested data.
system.cpu1.toL3Bus.snoop_filter.hit_multi_snoops            0                       # Number of snoops hitting in the snoop filter with multiple (>1) holders of the requested data.
system.cpu1.toL3Bus.snoop_filter.hit_single_requests        18651                       # Number of requests hitting in the snoop filter with a single holder of the requested data.
system.cpu1.toL3Bus.snoop_filter.hit_single_snoops            0                       # Number of snoops hitting in the snoop filter with a single holder of the requested data.
system.cpu1.toL3Bus.snoop_filter.tot_requests        41721                       # Total number of requests made to the snoop filter.
system.cpu1.toL3Bus.snoop_filter.tot_snoops            0                       # Total number of snoops made to the snoop filter.
system.cpu1.workload.numSyscalls                12463                       # Number of system calls
system.membus.snoop_filter.hit_multi_requests            0                       # Number of requests hitting in the snoop filter with multiple (>1) holders of the requested data.
system.membus.snoop_filter.hit_multi_snoops            0                       # Number of snoops hitting in the snoop filter with multiple (>1) holders of the requested data.
system.membus.snoop_filter.hit_single_requests            0                       # Number of requests hitting in the snoop filter with a single holder of the requested data.
system.membus.snoop_filter.hit_single_snoops            0                       # Number of snoops hitting in the snoop filter with a single holder of the requested data.
system.membus.snoop_filter.tot_requests         29107                       # Total number of requests made to the snoop filter.
system.membus.snoop_filter.tot_snoops               0                       # Total number of snoops made to the snoop filter.
system.switch_cpus0.Branches                   281605                       # Number of branches fetched
system.switch_cpus0.committedInsts            1000002                       # Number of instructions committed
system.switch_cpus0.committedOps              2056512                       # Number of ops (including micro ops) committed
system.switch_cpus0.dtb.rdAccesses             257211                       # TLB accesses on read requests
system.switch_cpus0.dtb.rdMisses                   33                       # TLB misses on read requests
system.switch_cpus0.dtb.wrAccesses             148913                       # TLB accesses on write requests
system.switch_cpus0.dtb.wrMisses                   56                       # TLB misses on write requests
system.switch_cpus0.idle_fraction            0.000000                       # Percentage of idle cycles
system.switch_cpus0.itb.rdAccesses                  0                       # TLB accesses on read requests
system.switch_cpus0.itb.rdMisses                    0                       # TLB misses on read requests
system.switch_cpus0.itb.wrAccesses            1179610                       # TLB accesses on write requests
system.switch_cpus0.itb.wrMisses                   61                       # TLB misses on write requests
system.switch_cpus0.not_idle_fraction        1.000000                       # Percentage of non-idle cycles
system.switch_cpus0.numCycles                 5132231                       # number of cpu cycles simulated
system.switch_cpus0.numWorkItemsCompleted            0                       # number of work items this cpu completed
system.switch_cpus0.numWorkItemsStarted             0                       # number of work items this cpu started
system.switch_cpus0.num_busy_cycles      5132230.391092                       # Number of busy cycles
system.switch_cpus0.num_cc_register_reads      1176914                       # number of times the CC registers were read
system.switch_cpus0.num_cc_register_writes       547768                       # number of times the CC registers were written
system.switch_cpus0.num_conditional_control_insts       184720                       # number of instructions that are conditional controls
system.switch_cpus0.num_fp_alu_accesses         49772                       # Number of float alu accesses
system.switch_cpus0.num_fp_insts                49772                       # number of float instructions
system.switch_cpus0.num_fp_register_reads        72104                       # number of times the floating registers were read
system.switch_cpus0.num_fp_register_writes        38891                       # number of times the floating registers were written
system.switch_cpus0.num_func_calls              60299                       # number of times a function call or return occured
system.switch_cpus0.num_idle_cycles          0.608908                       # Number of idle cycles
system.switch_cpus0.num_int_alu_accesses      2022290                       # Number of integer alu accesses
system.switch_cpus0.num_int_insts             2022290                       # number of integer instructions
system.switch_cpus0.num_int_register_reads      4051873                       # number of times the integer registers were read
system.switch_cpus0.num_int_register_writes      1596818                       # number of times the integer registers were written
system.switch_cpus0.num_load_insts             256672                       # Number of load instructions
system.switch_cpus0.num_mem_refs               405521                       # number of memory refs
system.switch_cpus0.num_store_insts            148849                       # Number of store instructions
system.switch_cpus0.num_vec_alu_accesses            0                       # Number of vector alu accesses
system.switch_cpus0.num_vec_insts                   0                       # number of vector instructions
system.switch_cpus0.num_vec_register_reads            0                       # number of times the vector registers were read
system.switch_cpus0.num_vec_register_writes            0                       # number of times the vector registers were written
system.switch_cpus0.op_class::No_OpClass         8010      0.39%      0.39% # Class of executed instruction
system.switch_cpus0.op_class::IntAlu          1602928     77.94%     78.33% # Class of executed instruction
system.switch_cpus0.op_class::IntMult            1179      0.06%     78.39% # Class of executed instruction
system.switch_cpus0.op_class::IntDiv             6624      0.32%     78.71% # Class of executed instruction
system.switch_cpus0.op_class::FloatAdd            917      0.04%     78.76% # Class of executed instruction
system.switch_cpus0.op_class::FloatCmp              0      0.00%     78.76% # Class of executed instruction
system.switch_cpus0.op_class::FloatCvt              0      0.00%     78.76% # Class of executed instruction
system.switch_cpus0.op_class::FloatMult             0      0.00%     78.76% # Class of executed instruction
system.switch_cpus0.op_class::FloatMultAcc            0      0.00%     78.76% # Class of executed instruction
system.switch_cpus0.op_class::FloatDiv              0      0.00%     78.76% # Class of executed instruction
system.switch_cpus0.op_class::FloatMisc             0      0.00%     78.76% # Class of executed instruction
system.switch_cpus0.op_class::FloatSqrt             0      0.00%     78.76% # Class of executed instruction
system.switch_cpus0.op_class::SimdAdd             264      0.01%     78.77% # Class of executed instruction
system.switch_cpus0.op_class::SimdAddAcc            0      0.00%     78.77% # Class of executed instruction
system.switch_cpus0.op_class::SimdAlu            8189      0.40%     79.17% # Class of executed instruction
system.switch_cpus0.op_class::SimdCmp              12      0.00%     79.17% # Class of executed instruction
system.switch_cpus0.op_class::SimdCvt            7050      0.34%     79.51% # Class of executed instruction
system.switch_cpus0.op_class::SimdMisc           8507      0.41%     79.93% # Class of executed instruction
system.switch_cpus0.op_class::SimdMult              0      0.00%     79.93% # Class of executed instruction
system.switch_cpus0.op_class::SimdMultAcc            0      0.00%     79.93% # Class of executed instruction
system.switch_cpus0.op_class::SimdShift           436      0.02%     79.95% # Class of executed instruction
system.switch_cpus0.op_class::SimdShiftAcc            0      0.00%     79.95% # Class of executed instruction
system.switch_cpus0.op_class::SimdDiv               0      0.00%     79.95% # Class of executed instruction
system.switch_cpus0.op_class::SimdSqrt              0      0.00%     79.95% # Class of executed instruction
system.switch_cpus0.op_class::SimdFloatAdd         3227      0.16%     80.10% # Class of executed instruction
system.switch_cpus0.op_class::SimdFloatAlu            0      0.00%     80.10% # Class of executed instruction
system.switch_cpus0.op_class::SimdFloatCmp            0      0.00%     80.10% # Class of executed instruction
system.switch_cpus0.op_class::SimdFloatCvt         1216      0.06%     80.16% # Class of executed instruction
system.switch_cpus0.op_class::SimdFloatDiv            0      0.00%     80.16% # Class of executed instruction
system.switch_cpus0.op_class::SimdFloatMisc            0      0.00%     80.16% # Class of executed instruction
system.switch_cpus0.op_class::SimdFloatMult         1824      0.09%     80.25% # Class of executed instruction
system.switch_cpus0.op_class::SimdFloatMultAcc            0      0.00%     80.25% # Class of executed instruction
system.switch_cpus0.op_class::SimdFloatSqrt          608      0.03%     80.28% # Class of executed instruction
system.switch_cpus0.op_class::SimdReduceAdd            0      0.00%     80.28% # Class of executed instruction
system.switch_cpus0.op_class::SimdReduceAlu            0      0.00%     80.28% # Class of executed instruction
system.switch_cpus0.op_class::SimdReduceCmp            0      0.00%     80.28% # Class of executed instruction
system.switch_cpus0.op_class::SimdFloatReduceAdd            0      0.00%     80.28% # Class of executed instruction
system.switch_cpus0.op_class::SimdFloatReduceCmp            0      0.00%     80.28% # Class of executed instruction
system.switch_cpus0.op_class::SimdAes               0      0.00%     80.28% # Class of executed instruction
system.switch_cpus0.op_class::SimdAesMix            0      0.00%     80.28% # Class of executed instruction
system.switch_cpus0.op_class::SimdSha1Hash            0      0.00%     80.28% # Class of executed instruction
system.switch_cpus0.op_class::SimdSha1Hash2            0      0.00%     80.28% # Class of executed instruction
system.switch_cpus0.op_class::SimdSha256Hash            0      0.00%     80.28% # Class of executed instruction
system.switch_cpus0.op_class::SimdSha256Hash2            0      0.00%     80.28% # Class of executed instruction
system.switch_cpus0.op_class::SimdShaSigma2            0      0.00%     80.28% # Class of executed instruction
system.switch_cpus0.op_class::SimdShaSigma3            0      0.00%     80.28% # Class of executed instruction
system.switch_cpus0.op_class::SimdPredAlu            0      0.00%     80.28% # Class of executed instruction
system.switch_cpus0.op_class::MemRead          242642     11.80%     92.08% # Class of executed instruction
system.switch_cpus0.op_class::MemWrite         145885      7.09%     99.17% # Class of executed instruction
system.switch_cpus0.op_class::FloatMemRead        14030      0.68%     99.86% # Class of executed instruction
system.switch_cpus0.op_class::FloatMemWrite         2964      0.14%    100.00% # Class of executed instruction
system.switch_cpus0.op_class::IprAccess             0      0.00%    100.00% # Class of executed instruction
system.switch_cpus0.op_class::InstPrefetch            0      0.00%    100.00% # Class of executed instruction
system.switch_cpus0.op_class::total           2056512                       # Class of executed instruction
system.switch_cpus1.Branches                   196739                       # Number of branches fetched
system.switch_cpus1.committedInsts             875408                       # Number of instructions committed
system.switch_cpus1.committedOps              1771300                       # Number of ops (including micro ops) committed
system.switch_cpus1.dtb.rdAccesses             255642                       # TLB accesses on read requests
system.switch_cpus1.dtb.rdMisses                   40                       # TLB misses on read requests
system.switch_cpus1.dtb.wrAccesses             186753                       # TLB accesses on write requests
system.switch_cpus1.dtb.wrMisses                    3                       # TLB misses on write requests
system.switch_cpus1.idle_fraction            0.000000                       # Percentage of idle cycles
system.switch_cpus1.itb.rdAccesses                  0                       # TLB accesses on read requests
system.switch_cpus1.itb.rdMisses                    0                       # TLB misses on read requests
system.switch_cpus1.itb.wrAccesses            1109965                       # TLB accesses on write requests
system.switch_cpus1.itb.wrMisses                   27                       # TLB misses on write requests
system.switch_cpus1.not_idle_fraction        1.000000                       # Percentage of non-idle cycles
system.switch_cpus1.numCycles                 5132231                       # number of cpu cycles simulated
system.switch_cpus1.numWorkItemsCompleted            0                       # number of work items this cpu completed
system.switch_cpus1.numWorkItemsStarted             0                       # number of work items this cpu started
system.switch_cpus1.num_busy_cycles      5132230.391092                       # Number of busy cycles
system.switch_cpus1.num_cc_register_reads       732699                       # number of times the CC registers were read
system.switch_cpus1.num_cc_register_writes       393123                       # number of times the CC registers were written
system.switch_cpus1.num_conditional_control_insts        89644                       # number of instructions that are conditional controls
system.switch_cpus1.num_fp_alu_accesses         14479                       # Number of float alu accesses
system.switch_cpus1.num_fp_insts                14479                       # number of float instructions
system.switch_cpus1.num_fp_register_reads        24305                       # number of times the floating registers were read
system.switch_cpus1.num_fp_register_writes        12735                       # number of times the floating registers were written
system.switch_cpus1.num_func_calls              92777                       # number of times a function call or return occured
system.switch_cpus1.num_idle_cycles          0.608908                       # Number of idle cycles
system.switch_cpus1.num_int_alu_accesses      1753067                       # Number of integer alu accesses
system.switch_cpus1.num_int_insts             1753067                       # number of integer instructions
system.switch_cpus1.num_int_register_reads      3716576                       # number of times the integer registers were read
system.switch_cpus1.num_int_register_writes      1375037                       # number of times the integer registers were written
system.switch_cpus1.num_load_insts             255640                       # Number of load instructions
system.switch_cpus1.num_mem_refs               442391                       # number of memory refs
system.switch_cpus1.num_store_insts            186751                       # Number of store instructions
system.switch_cpus1.num_vec_alu_accesses            0                       # Number of vector alu accesses
system.switch_cpus1.num_vec_insts                   0                       # number of vector instructions
system.switch_cpus1.num_vec_register_reads            0                       # number of times the vector registers were read
system.switch_cpus1.num_vec_register_writes            0                       # number of times the vector registers were written
system.switch_cpus1.op_class::No_OpClass         5875      0.33%      0.33% # Class of executed instruction
system.switch_cpus1.op_class::IntAlu          1309778     73.94%     74.28% # Class of executed instruction
system.switch_cpus1.op_class::IntMult             818      0.05%     74.32% # Class of executed instruction
system.switch_cpus1.op_class::IntDiv             2016      0.11%     74.44% # Class of executed instruction
system.switch_cpus1.op_class::FloatAdd            577      0.03%     74.47% # Class of executed instruction
system.switch_cpus1.op_class::FloatCmp              0      0.00%     74.47% # Class of executed instruction
system.switch_cpus1.op_class::FloatCvt              0      0.00%     74.47% # Class of executed instruction
system.switch_cpus1.op_class::FloatMult             0      0.00%     74.47% # Class of executed instruction
system.switch_cpus1.op_class::FloatMultAcc            0      0.00%     74.47% # Class of executed instruction
system.switch_cpus1.op_class::FloatDiv              0      0.00%     74.47% # Class of executed instruction
system.switch_cpus1.op_class::FloatMisc             0      0.00%     74.47% # Class of executed instruction
system.switch_cpus1.op_class::FloatSqrt             0      0.00%     74.47% # Class of executed instruction
system.switch_cpus1.op_class::SimdAdd               0      0.00%     74.47% # Class of executed instruction
system.switch_cpus1.op_class::SimdAddAcc            0      0.00%     74.47% # Class of executed instruction
system.switch_cpus1.op_class::SimdAlu            2316      0.13%     74.60% # Class of executed instruction
system.switch_cpus1.op_class::SimdCmp               0      0.00%     74.60% # Class of executed instruction
system.switch_cpus1.op_class::SimdCvt            2322      0.13%     74.73% # Class of executed instruction
system.switch_cpus1.op_class::SimdMisc           5207      0.29%     75.02% # Class of executed instruction
system.switch_cpus1.op_class::SimdMult              0      0.00%     75.02% # Class of executed instruction
system.switch_cpus1.op_class::SimdMultAcc            0      0.00%     75.02% # Class of executed instruction
system.switch_cpus1.op_class::SimdShift             0      0.00%     75.02% # Class of executed instruction
system.switch_cpus1.op_class::SimdShiftAcc            0      0.00%     75.02% # Class of executed instruction
system.switch_cpus1.op_class::SimdDiv               0      0.00%     75.02% # Class of executed instruction
system.switch_cpus1.op_class::SimdSqrt              0      0.00%     75.02% # Class of executed instruction
system.switch_cpus1.op_class::SimdFloatAdd            0      0.00%     75.02% # Class of executed instruction
system.switch_cpus1.op_class::SimdFloatAlu            0      0.00%     75.02% # Class of executed instruction
system.switch_cpus1.op_class::SimdFloatCmp            0      0.00%     75.02% # Class of executed instruction
system.switch_cpus1.op_class::SimdFloatCvt            0      0.00%     75.02% # Class of executed instruction
system.switch_cpus1.op_class::SimdFloatDiv            0      0.00%     75.02% # Class of executed instruction
system.switch_cpus1.op_class::SimdFloatMisc            0      0.00%     75.02% # Class of executed instruction
system.switch_cpus1.op_class::SimdFloatMult            0      0.00%     75.02% # Class of executed instruction
system.switch_cpus1.op_class::SimdFloatMultAcc            0      0.00%     75.02% # Class of executed instruction
system.switch_cpus1.op_class::SimdFloatSqrt            0      0.00%     75.02% # Class of executed instruction
system.switch_cpus1.op_class::SimdReduceAdd            0      0.00%     75.02% # Class of executed instruction
system.switch_cpus1.op_class::SimdReduceAlu            0      0.00%     75.02% # Class of executed instruction
system.switch_cpus1.op_class::SimdReduceCmp            0      0.00%     75.02% # Class of executed instruction
system.switch_cpus1.op_class::SimdFloatReduceAdd            0      0.00%     75.02% # Class of executed instruction
system.switch_cpus1.op_class::SimdFloatReduceCmp            0      0.00%     75.02% # Class of executed instruction
system.switch_cpus1.op_class::SimdAes               0      0.00%     75.02% # Class of executed instruction
system.switch_cpus1.op_class::SimdAesMix            0      0.00%     75.02% # Class of executed instruction
system.switch_cpus1.op_class::SimdSha1Hash            0      0.00%     75.02% # Class of executed instruction
system.switch_cpus1.op_class::SimdSha1Hash2            0      0.00%     75.02% # Class of executed instruction
system.switch_cpus1.op_class::SimdSha256Hash            0      0.00%     75.02% # Class of executed instruction
system.switch_cpus1.op_class::SimdSha256Hash2            0      0.00%     75.02% # Class of executed instruction
system.switch_cpus1.op_class::SimdShaSigma2            0      0.00%     75.02% # Class of executed instruction
system.switch_cpus1.op_class::SimdShaSigma3            0      0.00%     75.02% # Class of executed instruction
system.switch_cpus1.op_class::SimdPredAlu            0      0.00%     75.02% # Class of executed instruction
system.switch_cpus1.op_class::MemRead          253890     14.33%     89.36% # Class of executed instruction
system.switch_cpus1.op_class::MemWrite         186175     10.51%     99.87% # Class of executed instruction
system.switch_cpus1.op_class::FloatMemRead         1750      0.10%     99.97% # Class of executed instruction
system.switch_cpus1.op_class::FloatMemWrite          576      0.03%    100.00% # Class of executed instruction
system.switch_cpus1.op_class::IprAccess             0      0.00%    100.00% # Class of executed instruction
system.switch_cpus1.op_class::InstPrefetch            0      0.00%    100.00% # Class of executed instruction
system.switch_cpus1.op_class::total           1771300                       # Class of executed instruction
system.switch_cpus_10.branchPred.BTBCorrect            0                       # Number of correct BTB predictions (this stat may not work properly.
system.switch_cpus_10.branchPred.BTBHitPct     0.000000                       # BTB Hit Percentage
system.switch_cpus_10.branchPred.BTBHits            0                       # Number of BTB hits
system.switch_cpus_10.branchPred.BTBLookups     14612617                       # Number of BTB lookups
system.switch_cpus_10.branchPred.RASInCorrect            1                       # Number of incorrect RAS predictions.
system.switch_cpus_10.branchPred.condIncorrect      1106486                       # Number of conditional branches incorrect
system.switch_cpus_10.branchPred.condPredicted     15593239                       # Number of conditional branches predicted
system.switch_cpus_10.branchPred.indirectHits      5372835                       # Number of indirect target hits.
system.switch_cpus_10.branchPred.indirectLookups     14612617                       # Number of indirect predictor lookups.
system.switch_cpus_10.branchPred.indirectMisses      9239782                       # Number of indirect misses.
system.switch_cpus_10.branchPred.lookups     17217206                       # Number of BP lookups
system.switch_cpus_10.branchPred.usedRAS       638929                       # Number of times the RAS was used to get a target.
system.switch_cpus_10.branchPredindirectMispredicted       930412                       # Number of mispredicted indirect branches.
system.switch_cpus_10.cc_regfile_reads       69234365                       # number of cc regfile reads
system.switch_cpus_10.cc_regfile_writes      35086308                       # number of cc regfile writes
system.switch_cpus_10.commit.amos                   0                       # Number of atomic instructions committed
system.switch_cpus_10.commit.branchMispredicts      1106486                       # The number of times a branch was mispredicted
system.switch_cpus_10.commit.branches        11781138                       # Number of branches committed
system.switch_cpus_10.commit.bw_lim_events      4728313                       # number cycles where commit BW limit reached
system.switch_cpus_10.commit.commitNonSpecStalls           59                       # The number of times commit has been forced to stall to communicate backwards
system.switch_cpus_10.commit.commitSquashedInsts     25016603                       # The number of squashed insts skipped by commit
system.switch_cpus_10.commit.committedInsts     50000000                       # Number of instructions committed
system.switch_cpus_10.commit.committedOps     95583258                       # Number of ops (including micro ops) committed
system.switch_cpus_10.commit.committed_per_cycle::samples     41694036                       # Number of insts commited each cycle
system.switch_cpus_10.commit.committed_per_cycle::mean     2.292492                       # Number of insts commited each cycle
system.switch_cpus_10.commit.committed_per_cycle::stdev     2.676550                       # Number of insts commited each cycle
system.switch_cpus_10.commit.committed_per_cycle::underflows            0      0.00%      0.00% # Number of insts commited each cycle
system.switch_cpus_10.commit.committed_per_cycle::0     14917092     35.78%     35.78% # Number of insts commited each cycle
system.switch_cpus_10.commit.committed_per_cycle::1      7993186     19.17%     54.95% # Number of insts commited each cycle
system.switch_cpus_10.commit.committed_per_cycle::2      3402094      8.16%     63.11% # Number of insts commited each cycle
system.switch_cpus_10.commit.committed_per_cycle::3      5810311     13.94%     77.04% # Number of insts commited each cycle
system.switch_cpus_10.commit.committed_per_cycle::4      1735945      4.16%     81.21% # Number of insts commited each cycle
system.switch_cpus_10.commit.committed_per_cycle::5      1216159      2.92%     84.12% # Number of insts commited each cycle
system.switch_cpus_10.commit.committed_per_cycle::6       732680      1.76%     85.88% # Number of insts commited each cycle
system.switch_cpus_10.commit.committed_per_cycle::7      1158256      2.78%     88.66% # Number of insts commited each cycle
system.switch_cpus_10.commit.committed_per_cycle::8      4728313     11.34%    100.00% # Number of insts commited each cycle
system.switch_cpus_10.commit.committed_per_cycle::overflows            0      0.00%    100.00% # Number of insts commited each cycle
system.switch_cpus_10.commit.committed_per_cycle::min_value            0                       # Number of insts commited each cycle
system.switch_cpus_10.commit.committed_per_cycle::max_value            8                       # Number of insts commited each cycle
system.switch_cpus_10.commit.committed_per_cycle::total     41694036                       # Number of insts commited each cycle
system.switch_cpus_10.commit.fp_insts          808987                       # Number of committed floating point instructions.
system.switch_cpus_10.commit.function_calls       486991                       # Number of function calls committed.
system.switch_cpus_10.commit.int_insts       94788152                       # Number of committed integer instructions.
system.switch_cpus_10.commit.loads           11147624                       # Number of loads committed
system.switch_cpus_10.commit.membars                0                       # Number of memory barriers committed
system.switch_cpus_10.commit.op_class_0::No_OpClass       402798      0.42%      0.42% # Class of committed instruction
system.switch_cpus_10.commit.op_class_0::IntAlu     75959045     79.47%     79.89% # Class of committed instruction
system.switch_cpus_10.commit.op_class_0::IntMult        45398      0.05%     79.94% # Class of committed instruction
system.switch_cpus_10.commit.op_class_0::IntDiv       881658      0.92%     80.86% # Class of committed instruction
system.switch_cpus_10.commit.op_class_0::FloatAdd        77524      0.08%     80.94% # Class of committed instruction
system.switch_cpus_10.commit.op_class_0::FloatCmp            0      0.00%     80.94% # Class of committed instruction
system.switch_cpus_10.commit.op_class_0::FloatCvt            0      0.00%     80.94% # Class of committed instruction
system.switch_cpus_10.commit.op_class_0::FloatMult            0      0.00%     80.94% # Class of committed instruction
system.switch_cpus_10.commit.op_class_0::FloatMultAcc            0      0.00%     80.94% # Class of committed instruction
system.switch_cpus_10.commit.op_class_0::FloatDiv            0      0.00%     80.94% # Class of committed instruction
system.switch_cpus_10.commit.op_class_0::FloatMisc            0      0.00%     80.94% # Class of committed instruction
system.switch_cpus_10.commit.op_class_0::FloatSqrt            0      0.00%     80.94% # Class of committed instruction
system.switch_cpus_10.commit.op_class_0::SimdAdd            6      0.00%     80.94% # Class of committed instruction
system.switch_cpus_10.commit.op_class_0::SimdAddAcc            0      0.00%     80.94% # Class of committed instruction
system.switch_cpus_10.commit.op_class_0::SimdAlu       223358      0.23%     81.18% # Class of committed instruction
system.switch_cpus_10.commit.op_class_0::SimdCmp            0      0.00%     81.18% # Class of committed instruction
system.switch_cpus_10.commit.op_class_0::SimdCvt        52156      0.05%     81.23% # Class of committed instruction
system.switch_cpus_10.commit.op_class_0::SimdMisc        52150      0.05%     81.28% # Class of committed instruction
system.switch_cpus_10.commit.op_class_0::SimdMult            0      0.00%     81.28% # Class of committed instruction
system.switch_cpus_10.commit.op_class_0::SimdMultAcc            0      0.00%     81.28% # Class of committed instruction
system.switch_cpus_10.commit.op_class_0::SimdShift            7      0.00%     81.28% # Class of committed instruction
system.switch_cpus_10.commit.op_class_0::SimdShiftAcc            0      0.00%     81.28% # Class of committed instruction
system.switch_cpus_10.commit.op_class_0::SimdDiv            0      0.00%     81.28% # Class of committed instruction
system.switch_cpus_10.commit.op_class_0::SimdSqrt            0      0.00%     81.28% # Class of committed instruction
system.switch_cpus_10.commit.op_class_0::SimdFloatAdd        25382      0.03%     81.31% # Class of committed instruction
system.switch_cpus_10.commit.op_class_0::SimdFloatAlu            0      0.00%     81.31% # Class of committed instruction
system.switch_cpus_10.commit.op_class_0::SimdFloatCmp            0      0.00%     81.31% # Class of committed instruction
system.switch_cpus_10.commit.op_class_0::SimdFloatCvt            0      0.00%     81.31% # Class of committed instruction
system.switch_cpus_10.commit.op_class_0::SimdFloatDiv            0      0.00%     81.31% # Class of committed instruction
system.switch_cpus_10.commit.op_class_0::SimdFloatMisc            0      0.00%     81.31% # Class of committed instruction
system.switch_cpus_10.commit.op_class_0::SimdFloatMult            0      0.00%     81.31% # Class of committed instruction
system.switch_cpus_10.commit.op_class_0::SimdFloatMultAcc            0      0.00%     81.31% # Class of committed instruction
system.switch_cpus_10.commit.op_class_0::SimdFloatSqrt            0      0.00%     81.31% # Class of committed instruction
system.switch_cpus_10.commit.op_class_0::SimdReduceAdd            0      0.00%     81.31% # Class of committed instruction
system.switch_cpus_10.commit.op_class_0::SimdReduceAlu            0      0.00%     81.31% # Class of committed instruction
system.switch_cpus_10.commit.op_class_0::SimdReduceCmp            0      0.00%     81.31% # Class of committed instruction
system.switch_cpus_10.commit.op_class_0::SimdFloatReduceAdd            0      0.00%     81.31% # Class of committed instruction
system.switch_cpus_10.commit.op_class_0::SimdFloatReduceCmp            0      0.00%     81.31% # Class of committed instruction
system.switch_cpus_10.commit.op_class_0::SimdAes            0      0.00%     81.31% # Class of committed instruction
system.switch_cpus_10.commit.op_class_0::SimdAesMix            0      0.00%     81.31% # Class of committed instruction
system.switch_cpus_10.commit.op_class_0::SimdSha1Hash            0      0.00%     81.31% # Class of committed instruction
system.switch_cpus_10.commit.op_class_0::SimdSha1Hash2            0      0.00%     81.31% # Class of committed instruction
system.switch_cpus_10.commit.op_class_0::SimdSha256Hash            0      0.00%     81.31% # Class of committed instruction
system.switch_cpus_10.commit.op_class_0::SimdSha256Hash2            0      0.00%     81.31% # Class of committed instruction
system.switch_cpus_10.commit.op_class_0::SimdShaSigma2            0      0.00%     81.31% # Class of committed instruction
system.switch_cpus_10.commit.op_class_0::SimdShaSigma3            0      0.00%     81.31% # Class of committed instruction
system.switch_cpus_10.commit.op_class_0::SimdPredAlu            0      0.00%     81.31% # Class of committed instruction
system.switch_cpus_10.commit.op_class_0::MemRead     10899576     11.40%     92.71% # Class of committed instruction
system.switch_cpus_10.commit.op_class_0::MemWrite      6585798      6.89%     99.60% # Class of committed instruction
system.switch_cpus_10.commit.op_class_0::FloatMemRead       248048      0.26%     99.86% # Class of committed instruction
system.switch_cpus_10.commit.op_class_0::FloatMemWrite       130354      0.14%    100.00% # Class of committed instruction
system.switch_cpus_10.commit.op_class_0::IprAccess            0      0.00%    100.00% # Class of committed instruction
system.switch_cpus_10.commit.op_class_0::InstPrefetch            0      0.00%    100.00% # Class of committed instruction
system.switch_cpus_10.commit.op_class_0::total     95583258                       # Class of committed instruction
system.switch_cpus_10.commit.refs            17863776                       # Number of memory references committed
system.switch_cpus_10.commit.swp_count              0                       # Number of s/w prefetches committed
system.switch_cpus_10.commit.vec_insts              0                       # Number of committed Vector instructions.
system.switch_cpus_10.committedInsts         50000000                       # Number of Instructions Simulated
system.switch_cpus_10.committedOps           95583258                       # Number of Ops (including micro ops) Simulated
system.switch_cpus_10.cpi                    0.908784                       # CPI: Cycles Per Instruction
system.switch_cpus_10.cpi_total              0.908784                       # CPI: Total CPI of All Threads
system.switch_cpus_10.decode.BlockedCycles      3225519                       # Number of cycles decode is blocked
system.switch_cpus_10.decode.DecodedInsts    134769644                       # Number of instructions handled by decode
system.switch_cpus_10.decode.IdleCycles      20030630                       # Number of cycles decode is idle
system.switch_cpus_10.decode.RunCycles       20965705                       # Number of cycles decode is running
system.switch_cpus_10.decode.SquashCycles      1106947                       # Number of cycles decode is squashing
system.switch_cpus_10.decode.UnblockCycles       100480                       # Number of cycles decode is unblocking
system.switch_cpus_10.dtb.rdAccesses         13053090                       # TLB accesses on read requests
system.switch_cpus_10.dtb.rdMisses                161                       # TLB misses on read requests
system.switch_cpus_10.dtb.wrAccesses          7411320                       # TLB accesses on write requests
system.switch_cpus_10.dtb.wrMisses                 68                       # TLB misses on write requests
system.switch_cpus_10.fetch.Branches         17217206                       # Number of branches that fetch encountered
system.switch_cpus_10.fetch.CacheLines       10489935                       # Number of cache lines fetched
system.switch_cpus_10.fetch.Cycles           23071728                       # Number of cycles fetch has run and was not squashing or blocked
system.switch_cpus_10.fetch.IcacheSquashes       474257                       # Number of outstanding Icache misses that were squashed
system.switch_cpus_10.fetch.IcacheWaitRetryStallCycles          350                       # Number of stall cycles due to full MSHR
system.switch_cpus_10.fetch.Insts            72869749                       # Number of instructions fetch has processed
system.switch_cpus_10.fetch.MiscStallCycles           60                       # Number of cycles fetch has spent waiting on interrupts, or bad addresses, or out of MSHRs
system.switch_cpus_10.fetch.SquashCycles      2213894                       # Number of cycles fetch has spent squashing
system.switch_cpus_10.fetch.branchRate       0.378906                       # Number of branch fetches per cycle
system.switch_cpus_10.fetch.icacheStallCycles     21250201                       # Number of cycles fetch is stalled on an Icache miss
system.switch_cpus_10.fetch.predictedBranches      6011764                       # Number of branches that fetch has predicted taken
system.switch_cpus_10.fetch.rate             1.603675                       # Number of inst fetches per cycle
system.switch_cpus_10.fetch.rateDist::samples     45429286                       # Number of instructions fetched each cycle (Total)
system.switch_cpus_10.fetch.rateDist::mean     3.069071                       # Number of instructions fetched each cycle (Total)
system.switch_cpus_10.fetch.rateDist::stdev     3.549535                       # Number of instructions fetched each cycle (Total)
system.switch_cpus_10.fetch.rateDist::underflows            0      0.00%      0.00% # Number of instructions fetched each cycle (Total)
system.switch_cpus_10.fetch.rateDist::0      23282003     51.25%     51.25% # Number of instructions fetched each cycle (Total)
system.switch_cpus_10.fetch.rateDist::1       1017054      2.24%     53.49% # Number of instructions fetched each cycle (Total)
system.switch_cpus_10.fetch.rateDist::2       1527425      3.36%     56.85% # Number of instructions fetched each cycle (Total)
system.switch_cpus_10.fetch.rateDist::3       1761905      3.88%     60.73% # Number of instructions fetched each cycle (Total)
system.switch_cpus_10.fetch.rateDist::4       1048698      2.31%     63.04% # Number of instructions fetched each cycle (Total)
system.switch_cpus_10.fetch.rateDist::5       1712580      3.77%     66.81% # Number of instructions fetched each cycle (Total)
system.switch_cpus_10.fetch.rateDist::6       1252569      2.76%     69.56% # Number of instructions fetched each cycle (Total)
system.switch_cpus_10.fetch.rateDist::7        821430      1.81%     71.37% # Number of instructions fetched each cycle (Total)
system.switch_cpus_10.fetch.rateDist::8      13005622     28.63%    100.00% # Number of instructions fetched each cycle (Total)
system.switch_cpus_10.fetch.rateDist::overflows            0      0.00%    100.00% # Number of instructions fetched each cycle (Total)
system.switch_cpus_10.fetch.rateDist::min_value            0                       # Number of instructions fetched each cycle (Total)
system.switch_cpus_10.fetch.rateDist::max_value            8                       # Number of instructions fetched each cycle (Total)
system.switch_cpus_10.fetch.rateDist::total     45429286                       # Number of instructions fetched each cycle (Total)
system.switch_cpus_10.fp_regfile_reads         971470                       # number of floating regfile reads
system.switch_cpus_10.fp_regfile_writes        729872                       # number of floating regfile writes
system.switch_cpus_10.idleCycles                 9930                       # Total number of cycles that the CPU has spent unscheduled due to idling
system.switch_cpus_10.iew.branchMispredicts      1510767                       # Number of branch mispredicts detected at execute
system.switch_cpus_10.iew.exec_branches      13124653                       # Number of branches executed
system.switch_cpus_10.iew.exec_nop                  0                       # number of nop insts executed
system.switch_cpus_10.iew.exec_rate          2.440916                       # Inst execution rate
system.switch_cpus_10.iew.exec_refs          20438360                       # number of memory reference insts executed
system.switch_cpus_10.iew.exec_stores         7411320                       # Number of stores executed
system.switch_cpus_10.iew.exec_swp                  0                       # number of swp insts executed
system.switch_cpus_10.iew.iewBlockCycles      2628402                       # Number of cycles IEW is blocking
system.switch_cpus_10.iew.iewDispLoadInsts     14067258                       # Number of dispatched load instructions
system.switch_cpus_10.iew.iewDispNonSpecInsts        36519                       # Number of dispatched non-speculative instructions
system.switch_cpus_10.iew.iewDispSquashedInsts       508168                       # Number of squashed instructions skipped by dispatch
system.switch_cpus_10.iew.iewDispStoreInsts      8338271                       # Number of dispatched store instructions
system.switch_cpus_10.iew.iewDispatchedInsts    120599861                       # Number of instructions dispatched to IQ
system.switch_cpus_10.iew.iewExecLoadInsts     13027040                       # Number of load instructions executed
system.switch_cpus_10.iew.iewExecSquashedInsts      2335081                       # Number of squashed instructions skipped in execute
system.switch_cpus_10.iew.iewExecutedInsts    110913328                       # Number of executed instructions
system.switch_cpus_10.iew.iewIQFullEvents            2                       # Number of times the IQ has become full, causing a stall
system.switch_cpus_10.iew.iewIdleCycles             0                       # Number of cycles IEW is idle
system.switch_cpus_10.iew.iewLSQFullEvents         2144                       # Number of times the LSQ has become full, causing a stall
system.switch_cpus_10.iew.iewSquashCycles      1106947                       # Number of cycles IEW is squashing
system.switch_cpus_10.iew.iewUnblockCycles         2147                       # Number of cycles IEW is unblocking
system.switch_cpus_10.iew.lsq.thread0.blockedLoads            0                       # Number of blocked loads due to partial load-store forwarding
system.switch_cpus_10.iew.lsq.thread0.cacheBlocked            9                       # Number of times an access to memory failed due to the cache being blocked
system.switch_cpus_10.iew.lsq.thread0.forwLoads      1791488                       # Number of loads that had data forwarded from stores
system.switch_cpus_10.iew.lsq.thread0.ignoredResponses         8594                       # Number of memory responses ignored because the instruction is squashed
system.switch_cpus_10.iew.lsq.thread0.invAddrLoads            0                       # Number of loads ignored due to an invalid address
system.switch_cpus_10.iew.lsq.thread0.invAddrSwpfs            0                       # Number of software prefetches ignored due to an invalid address
system.switch_cpus_10.iew.lsq.thread0.memOrderViolation         2347                       # Number of memory ordering violations
system.switch_cpus_10.iew.lsq.thread0.rescheduledLoads        26062                       # Number of loads that were rescheduled
system.switch_cpus_10.iew.lsq.thread0.squashedLoads      2919634                       # Number of loads squashed
system.switch_cpus_10.iew.lsq.thread0.squashedStores      1622119                       # Number of stores squashed
system.switch_cpus_10.iew.memOrderViolationEvents         2347                       # Number of memory order violations
system.switch_cpus_10.iew.predictedNotTakenIncorrect      1410980                       # Number of branches that were predicted not taken incorrectly
system.switch_cpus_10.iew.predictedTakenIncorrect        99787                       # Number of branches that were predicted taken incorrectly
system.switch_cpus_10.iew.wb_consumers      125373447                       # num instructions consuming a value
system.switch_cpus_10.iew.wb_count          109909322                       # cumulative count of insts written-back
system.switch_cpus_10.iew.wb_fanout          0.627800                       # average fanout of values written-back
system.switch_cpus_10.iew.wb_producers       78709391                       # num instructions producing a value
system.switch_cpus_10.iew.wb_rate            2.418821                       # insts written-back per cycle
system.switch_cpus_10.iew.wb_sent           110097602                       # cumulative count of insts sent to commit
system.switch_cpus_10.int_regfile_reads     165073196                       # number of integer regfile reads
system.switch_cpus_10.int_regfile_writes     90296179                       # number of integer regfile writes
system.switch_cpus_10.ipc                    1.100371                       # IPC: Instructions Per Cycle
system.switch_cpus_10.ipc_total              1.100371                       # IPC: Total IPC of All Threads
system.switch_cpus_10.iq.FU_type_0::No_OpClass       704344      0.62%      0.62% # Type of FU issued
system.switch_cpus_10.iq.FU_type_0::IntAlu     89924954     79.41%     80.03% # Type of FU issued
system.switch_cpus_10.iq.FU_type_0::IntMult        46120      0.04%     80.07% # Type of FU issued
system.switch_cpus_10.iq.FU_type_0::IntDiv       952203      0.84%     80.91% # Type of FU issued
system.switch_cpus_10.iq.FU_type_0::FloatAdd       131940      0.12%     81.03% # Type of FU issued
system.switch_cpus_10.iq.FU_type_0::FloatCmp            0      0.00%     81.03% # Type of FU issued
system.switch_cpus_10.iq.FU_type_0::FloatCvt            0      0.00%     81.03% # Type of FU issued
system.switch_cpus_10.iq.FU_type_0::FloatMult            0      0.00%     81.03% # Type of FU issued
system.switch_cpus_10.iq.FU_type_0::FloatMultAcc            0      0.00%     81.03% # Type of FU issued
system.switch_cpus_10.iq.FU_type_0::FloatDiv            0      0.00%     81.03% # Type of FU issued
system.switch_cpus_10.iq.FU_type_0::FloatMisc            0      0.00%     81.03% # Type of FU issued
system.switch_cpus_10.iq.FU_type_0::FloatSqrt            0      0.00%     81.03% # Type of FU issued
system.switch_cpus_10.iq.FU_type_0::SimdAdd           12      0.00%     81.03% # Type of FU issued
system.switch_cpus_10.iq.FU_type_0::SimdAddAcc            0      0.00%     81.03% # Type of FU issued
system.switch_cpus_10.iq.FU_type_0::SimdAlu       255676      0.23%     81.25% # Type of FU issued
system.switch_cpus_10.iq.FU_type_0::SimdCmp            0      0.00%     81.25% # Type of FU issued
system.switch_cpus_10.iq.FU_type_0::SimdCvt        52173      0.05%     81.30% # Type of FU issued
system.switch_cpus_10.iq.FU_type_0::SimdMisc        52156      0.05%     81.34% # Type of FU issued
system.switch_cpus_10.iq.FU_type_0::SimdMult            0      0.00%     81.34% # Type of FU issued
system.switch_cpus_10.iq.FU_type_0::SimdMultAcc            0      0.00%     81.34% # Type of FU issued
system.switch_cpus_10.iq.FU_type_0::SimdShift           21      0.00%     81.34% # Type of FU issued
system.switch_cpus_10.iq.FU_type_0::SimdShiftAcc            0      0.00%     81.34% # Type of FU issued
system.switch_cpus_10.iq.FU_type_0::SimdDiv            0      0.00%     81.34% # Type of FU issued
system.switch_cpus_10.iq.FU_type_0::SimdSqrt            0      0.00%     81.34% # Type of FU issued
system.switch_cpus_10.iq.FU_type_0::SimdFloatAdd        25382      0.02%     81.37% # Type of FU issued
system.switch_cpus_10.iq.FU_type_0::SimdFloatAlu            0      0.00%     81.37% # Type of FU issued
system.switch_cpus_10.iq.FU_type_0::SimdFloatCmp            0      0.00%     81.37% # Type of FU issued
system.switch_cpus_10.iq.FU_type_0::SimdFloatCvt            0      0.00%     81.37% # Type of FU issued
system.switch_cpus_10.iq.FU_type_0::SimdFloatDiv            0      0.00%     81.37% # Type of FU issued
system.switch_cpus_10.iq.FU_type_0::SimdFloatMisc            0      0.00%     81.37% # Type of FU issued
system.switch_cpus_10.iq.FU_type_0::SimdFloatMult          111      0.00%     81.37% # Type of FU issued
system.switch_cpus_10.iq.FU_type_0::SimdFloatMultAcc            0      0.00%     81.37% # Type of FU issued
system.switch_cpus_10.iq.FU_type_0::SimdFloatSqrt            0      0.00%     81.37% # Type of FU issued
system.switch_cpus_10.iq.FU_type_0::SimdReduceAdd            0      0.00%     81.37% # Type of FU issued
system.switch_cpus_10.iq.FU_type_0::SimdReduceAlu            0      0.00%     81.37% # Type of FU issued
system.switch_cpus_10.iq.FU_type_0::SimdReduceCmp            0      0.00%     81.37% # Type of FU issued
system.switch_cpus_10.iq.FU_type_0::SimdFloatReduceAdd            0      0.00%     81.37% # Type of FU issued
system.switch_cpus_10.iq.FU_type_0::SimdFloatReduceCmp            0      0.00%     81.37% # Type of FU issued
system.switch_cpus_10.iq.FU_type_0::SimdAes            0      0.00%     81.37% # Type of FU issued
system.switch_cpus_10.iq.FU_type_0::SimdAesMix            0      0.00%     81.37% # Type of FU issued
system.switch_cpus_10.iq.FU_type_0::SimdSha1Hash            0      0.00%     81.37% # Type of FU issued
system.switch_cpus_10.iq.FU_type_0::SimdSha1Hash2            0      0.00%     81.37% # Type of FU issued
system.switch_cpus_10.iq.FU_type_0::SimdSha256Hash            0      0.00%     81.37% # Type of FU issued
system.switch_cpus_10.iq.FU_type_0::SimdSha256Hash2            0      0.00%     81.37% # Type of FU issued
system.switch_cpus_10.iq.FU_type_0::SimdShaSigma2            0      0.00%     81.37% # Type of FU issued
system.switch_cpus_10.iq.FU_type_0::SimdShaSigma3            0      0.00%     81.37% # Type of FU issued
system.switch_cpus_10.iq.FU_type_0::SimdPredAlu            0      0.00%     81.37% # Type of FU issued
system.switch_cpus_10.iq.FU_type_0::MemRead     12990198     11.47%     92.84% # Type of FU issued
system.switch_cpus_10.iq.FU_type_0::MemWrite      7500715      6.62%     99.46% # Type of FU issued
system.switch_cpus_10.iq.FU_type_0::FloatMemRead       400411      0.35%     99.81% # Type of FU issued
system.switch_cpus_10.iq.FU_type_0::FloatMemWrite       211993      0.19%    100.00% # Type of FU issued
system.switch_cpus_10.iq.FU_type_0::IprAccess            0      0.00%    100.00% # Type of FU issued
system.switch_cpus_10.iq.FU_type_0::InstPrefetch            0      0.00%    100.00% # Type of FU issued
system.switch_cpus_10.iq.FU_type_0::total    113248409                       # Type of FU issued
system.switch_cpus_10.iq.fp_alu_accesses      1179270                       # Number of floating point alu accesses
system.switch_cpus_10.iq.fp_inst_queue_reads      2341704                       # Number of floating instruction queue reads
system.switch_cpus_10.iq.fp_inst_queue_wakeup_accesses       942012                       # Number of floating instruction queue wakeup accesses
system.switch_cpus_10.iq.fp_inst_queue_writes      1747535                       # Number of floating instruction queue writes
system.switch_cpus_10.iq.fu_busy_cnt          1420552                       # FU busy when requested
system.switch_cpus_10.iq.fu_busy_rate        0.012544                       # FU busy rate (busy events/executed inst)
system.switch_cpus_10.iq.fu_full::No_OpClass            0      0.00%      0.00% # attempts to use FU when none available
system.switch_cpus_10.iq.fu_full::IntAlu      1299790     91.50%     91.50% # attempts to use FU when none available
system.switch_cpus_10.iq.fu_full::IntMult            0      0.00%     91.50% # attempts to use FU when none available
system.switch_cpus_10.iq.fu_full::IntDiv            0      0.00%     91.50% # attempts to use FU when none available
system.switch_cpus_10.iq.fu_full::FloatAdd            0      0.00%     91.50% # attempts to use FU when none available
system.switch_cpus_10.iq.fu_full::FloatCmp            0      0.00%     91.50% # attempts to use FU when none available
system.switch_cpus_10.iq.fu_full::FloatCvt            0      0.00%     91.50% # attempts to use FU when none available
system.switch_cpus_10.iq.fu_full::FloatMult            0      0.00%     91.50% # attempts to use FU when none available
system.switch_cpus_10.iq.fu_full::FloatMultAcc            0      0.00%     91.50% # attempts to use FU when none available
system.switch_cpus_10.iq.fu_full::FloatDiv            0      0.00%     91.50% # attempts to use FU when none available
system.switch_cpus_10.iq.fu_full::FloatMisc            0      0.00%     91.50% # attempts to use FU when none available
system.switch_cpus_10.iq.fu_full::FloatSqrt            0      0.00%     91.50% # attempts to use FU when none available
system.switch_cpus_10.iq.fu_full::SimdAdd            0      0.00%     91.50% # attempts to use FU when none available
system.switch_cpus_10.iq.fu_full::SimdAddAcc            0      0.00%     91.50% # attempts to use FU when none available
system.switch_cpus_10.iq.fu_full::SimdAlu        26072      1.84%     93.33% # attempts to use FU when none available
system.switch_cpus_10.iq.fu_full::SimdCmp            0      0.00%     93.33% # attempts to use FU when none available
system.switch_cpus_10.iq.fu_full::SimdCvt            0      0.00%     93.33% # attempts to use FU when none available
system.switch_cpus_10.iq.fu_full::SimdMisc            0      0.00%     93.33% # attempts to use FU when none available
system.switch_cpus_10.iq.fu_full::SimdMult            0      0.00%     93.33% # attempts to use FU when none available
system.switch_cpus_10.iq.fu_full::SimdMultAcc            0      0.00%     93.33% # attempts to use FU when none available
system.switch_cpus_10.iq.fu_full::SimdShift            0      0.00%     93.33% # attempts to use FU when none available
system.switch_cpus_10.iq.fu_full::SimdShiftAcc            0      0.00%     93.33% # attempts to use FU when none available
system.switch_cpus_10.iq.fu_full::SimdDiv            0      0.00%     93.33% # attempts to use FU when none available
system.switch_cpus_10.iq.fu_full::SimdSqrt            0      0.00%     93.33% # attempts to use FU when none available
system.switch_cpus_10.iq.fu_full::SimdFloatAdd            0      0.00%     93.33% # attempts to use FU when none available
system.switch_cpus_10.iq.fu_full::SimdFloatAlu            0      0.00%     93.33% # attempts to use FU when none available
system.switch_cpus_10.iq.fu_full::SimdFloatCmp            0      0.00%     93.33% # attempts to use FU when none available
system.switch_cpus_10.iq.fu_full::SimdFloatCvt            0      0.00%     93.33% # attempts to use FU when none available
system.switch_cpus_10.iq.fu_full::SimdFloatDiv            0      0.00%     93.33% # attempts to use FU when none available
system.switch_cpus_10.iq.fu_full::SimdFloatMisc            0      0.00%     93.33% # attempts to use FU when none available
system.switch_cpus_10.iq.fu_full::SimdFloatMult            0      0.00%     93.33% # attempts to use FU when none available
[...]
system.cpu1.l2cache.ReadSharedReq_avg_miss_latency::total 156041.814032                       # average ReadSharedReq miss latency
system.cpu1.l2cache.ReadSharedReq_mshr_misses::.switch_cpus1.data         1098                       # number of ReadSharedReq MSHR misses
system.cpu1.l2cache.ReadSharedReq_mshr_misses::.switch_cpus_11.data        21664                       # number of ReadSharedReq MSHR misses
system.cpu1.l2cache.ReadSharedReq_mshr_misses::total        22762                       # number of ReadSharedReq MSHR misses
system.cpu1.l2cache.ReadSharedReq_mshr_miss_latency::.switch_cpus1.data    170218983                       # number of ReadSharedReq MSHR miss cycles
system.cpu1.l2cache.ReadSharedReq_mshr_miss_latency::.switch_cpus_11.data   3372113034                       # number of ReadSharedReq MSHR miss cycles
system.cpu1.l2cache.ReadSharedReq_mshr_miss_latency::total   3542332017                       # number of ReadSharedReq MSHR miss cycles
system.cpu1.l2cache.ReadSharedReq_mshr_miss_rate::.switch_cpus1.data     0.949827                       # mshr miss rate for ReadSharedReq accesses
system.cpu1.l2cache.ReadSharedReq_mshr_miss_rate::.switch_cpus_11.data     0.527194                       # mshr miss rate for ReadSharedReq accesses
system.cpu1.l2cache.ReadSharedReq_mshr_miss_rate::total     0.538758                       # mshr miss rate for ReadSharedReq accesses
system.cpu1.l2cache.ReadSharedReq_avg_mshr_miss_latency::.switch_cpus1.data 155026.396175                       # average ReadSharedReq mshr miss latency
system.cpu1.l2cache.ReadSharedReq_avg_mshr_miss_latency::.switch_cpus_11.data 155655.143741                       # average ReadSharedReq mshr miss latency
system.cpu1.l2cache.ReadSharedReq_avg_mshr_miss_latency::total 155624.814032                       # average ReadSharedReq mshr miss latency
system.cpu1.l2cache.tags.pwrStateResidencyTicks::UNDEFINED 1314440003517                       # Cumulative time (in ticks) in various power states
system.cpu1.l2cache.tags.tagsinuse          58.048811                       # Cycle average of tags in use
system.cpu1.l2cache.tags.total_refs             84467                       # Total number of references to valid blocks.
system.cpu1.l2cache.tags.sampled_refs           23072                       # Sample count of references to valid blocks.
system.cpu1.l2cache.tags.avg_refs            3.661018                       # Average number of references to valid blocks.
system.cpu1.l2cache.tags.warmup_cycle    1293351708033                       # Cycle when the warmup percentage was hit.
system.cpu1.l2cache.tags.occ_blocks::.cpu1.inst     0.003687                       # Average occupied blocks per requestor
system.cpu1.l2cache.tags.occ_blocks::.cpu1.data     0.016044                       # Average occupied blocks per requestor
system.cpu1.l2cache.tags.occ_blocks::.switch_cpus1.inst     0.683440                       # Average occupied blocks per requestor
system.cpu1.l2cache.tags.occ_blocks::.switch_cpus1.data     8.442511                       # Average occupied blocks per requestor
system.cpu1.l2cache.tags.occ_blocks::.switch_cpus_11.inst     0.191197                       # Average occupied blocks per requestor
system.cpu1.l2cache.tags.occ_blocks::.switch_cpus_11.data    48.711933                       # Average occupied blocks per requestor
system.cpu1.l2cache.tags.occ_percent::.cpu1.inst     0.000001                       # Average percentage of cache occupancy
system.cpu1.l2cache.tags.occ_percent::.cpu1.data     0.000004                       # Average percentage of cache occupancy
system.cpu1.l2cache.tags.occ_percent::.switch_cpus1.inst     0.000167                       # Average percentage of cache occupancy
system.cpu1.l2cache.tags.occ_percent::.switch_cpus1.data     0.002061                       # Average percentage of cache occupancy
system.cpu1.l2cache.tags.occ_percent::.switch_cpus_11.inst     0.000047                       # Average percentage of cache occupancy
system.cpu1.l2cache.tags.occ_percent::.switch_cpus_11.data     0.011893                       # Average percentage of cache occupancy
system.cpu1.l2cache.tags.occ_percent::total     0.014172                       # Average percentage of cache occupancy
system.cpu1.l2cache.tags.occ_task_id_blocks::1024         4096                       # Occupied blocks per task id
system.cpu1.l2cache.tags.age_task_id_blocks_1024::0           10                       # Occupied blocks per task id
system.cpu1.l2cache.tags.age_task_id_blocks_1024::1           18                       # Occupied blocks per task id
system.cpu1.l2cache.tags.age_task_id_blocks_1024::2          897                       # Occupied blocks per task id
system.cpu1.l2cache.tags.age_task_id_blocks_1024::3         2663                       # Occupied blocks per task id
system.cpu1.l2cache.tags.age_task_id_blocks_1024::4          508                       # Occupied blocks per task id
system.cpu1.l2cache.tags.occ_task_id_percent::1024            1                       # Percentage of cache occupancy per task id
system.cpu1.l2cache.tags.tag_accesses         1374624                       # Number of tag accesses
system.cpu1.l2cache.tags.data_accesses        1374624                       # Number of data accesses
system.cpu1.toL2Bus.pwrStateResidencyTicks::UNDEFINED 1314440003517                       # Cumulative time (in ticks) in various power states
system.cpu1.toL2Bus.trans_dist::ReadResp        42535                       # Transaction distribution
system.cpu1.toL2Bus.trans_dist::WritebackDirty          136                       # Transaction distribution
system.cpu1.toL2Bus.trans_dist::CleanEvict        60692                       # Transaction distribution
system.cpu1.toL2Bus.trans_dist::ReadExReq          115                       # Transaction distribution
system.cpu1.toL2Bus.trans_dist::ReadExResp          115                       # Transaction distribution
system.cpu1.toL2Bus.trans_dist::ReadCleanReq          286                       # Transaction distribution
system.cpu1.toL2Bus.trans_dist::ReadSharedReq        42249                       # Transaction distribution
system.cpu1.toL2Bus.pkt_count_system.cpu1.icache.mem_side::system.cpu1.l2cache.cpu_side          572                       # Packet count per connected master and slave (bytes)
system.cpu1.toL2Bus.pkt_count_system.cpu1.dcache.mem_side::system.cpu1.l2cache.cpu_side       126580                       # Packet count per connected master and slave (bytes)
system.cpu1.toL2Bus.pkt_count::total           127152                       # Packet count per connected master and slave (bytes)
system.cpu1.toL2Bus.pkt_size_system.cpu1.icache.mem_side::system.cpu1.l2cache.cpu_side        18304                       # Cumulative packet size per connected master and slave (bytes)
system.cpu1.toL2Bus.pkt_size_system.cpu1.dcache.mem_side::system.cpu1.l2cache.cpu_side      2719552                       # Cumulative packet size per connected master and slave (bytes)
system.cpu1.toL2Bus.pkt_size::total           2737856                       # Cumulative packet size per connected master and slave (bytes)
system.cpu1.toL2Bus.snoops                      18976                       # Total snoops (count)
system.cpu1.toL2Bus.snoopTraffic                  448                       # Total snoop traffic (bytes)
system.cpu1.toL2Bus.snoop_fanout::samples        61626                       # Request fanout histogram
system.cpu1.toL2Bus.snoop_fanout::mean       0.005874                       # Request fanout histogram
system.cpu1.toL2Bus.snoop_fanout::stdev      0.076418                       # Request fanout histogram
system.cpu1.toL2Bus.snoop_fanout::underflows            0      0.00%      0.00% # Request fanout histogram
system.cpu1.toL2Bus.snoop_fanout::0             61264     99.41%     99.41% # Request fanout histogram
system.cpu1.toL2Bus.snoop_fanout::1               362      0.59%    100.00% # Request fanout histogram
system.cpu1.toL2Bus.snoop_fanout::2                 0      0.00%    100.00% # Request fanout histogram
system.cpu1.toL2Bus.snoop_fanout::3                 0      0.00%    100.00% # Request fanout histogram
system.cpu1.toL2Bus.snoop_fanout::4                 0      0.00%    100.00% # Request fanout histogram
system.cpu1.toL2Bus.snoop_fanout::overflows            0      0.00%    100.00% # Request fanout histogram
system.cpu1.toL2Bus.snoop_fanout::min_value            0                       # Request fanout histogram
system.cpu1.toL2Bus.snoop_fanout::max_value            1                       # Request fanout histogram
system.cpu1.toL2Bus.snoop_fanout::total         61626                       # Request fanout histogram
system.cpu1.toL2Bus.reqLayer0.occupancy      35344086                       # Layer occupancy (ticks)
system.cpu1.toL2Bus.reqLayer0.utilization          0.2                       # Layer utilization (%)
system.cpu1.toL2Bus.respLayer1.occupancy     52996113                       # Layer occupancy (ticks)
system.cpu1.toL2Bus.respLayer1.utilization          0.3                       # Layer utilization (%)
system.cpu1.toL2Bus.respLayer0.occupancy       356535                       # Layer occupancy (ticks)
system.cpu1.toL2Bus.respLayer0.utilization          0.0                       # Layer utilization (%)
system.switch_cpus_10.pwrStateResidencyTicks::OFF  21088295901                       # Cumulative time (in ticks) in various power states
system.switch_cpus_10.dtb.walker.pwrStateResidencyTicks::UNDEFINED 1314440003517                       # Cumulative time (in ticks) in various power states
system.switch_cpus_10.itb.walker.pwrStateResidencyTicks::UNDEFINED 1314440003517                       # Cumulative time (in ticks) in various power states
system.switch_cpus_11.pwrStateResidencyTicks::OFF  21088295901                       # Cumulative time (in ticks) in various power states
system.switch_cpus_11.dtb.walker.pwrStateResidencyTicks::UNDEFINED 1314440003517                       # Cumulative time (in ticks) in various power states
system.switch_cpus_11.itb.walker.pwrStateResidencyTicks::UNDEFINED 1314440003517                       # Cumulative time (in ticks) in various power states
system.cpu_voltage_domain.voltage                   1                       # Voltage in Volts
system.switch_cpus1.numPwrStateTransitions            1                       # Number of power state transitions
system.switch_cpus1.pwrStateResidencyTicks::UNDEFINED 1293351707616                       # Cumulative time (in ticks) in various power states
system.switch_cpus1.pwrStateResidencyTicks::OFF  21088295901                       # Cumulative time (in ticks) in various power states
system.switch_cpus1.dtb.walker.pwrStateResidencyTicks::UNDEFINED 1314440003517                       # Cumulative time (in ticks) in various power states
system.switch_cpus1.itb.walker.pwrStateResidencyTicks::UNDEFINED 1314440003517                       # Cumulative time (in ticks) in various power states
system.mem_ctrls.pwrStateResidencyTicks::UNDEFINED 1314440003517                       # Cumulative time (in ticks) in various power states
system.mem_ctrls.bytes_read::.cpu0.inst            64                       # Number of bytes read from this memory
system.mem_ctrls.bytes_read::.cpu0.data            64                       # Number of bytes read from this memory
system.mem_ctrls.bytes_read::.cpu1.inst            64                       # Number of bytes read from this memory
system.mem_ctrls.bytes_read::.cpu1.data            64                       # Number of bytes read from this memory
system.mem_ctrls.bytes_read::.switch_cpus0.inst        42496                       # Number of bytes read from this memory
system.mem_ctrls.bytes_read::.switch_cpus0.data        70336                       # Number of bytes read from this memory
system.mem_ctrls.bytes_read::.switch_cpus1.inst        12672                       # Number of bytes read from this memory
system.mem_ctrls.bytes_read::.switch_cpus1.data        71616                       # Number of bytes read from this memory
system.mem_ctrls.bytes_read::.switch_cpus_10.inst        10304                       # Number of bytes read from this memory
system.mem_ctrls.bytes_read::.switch_cpus_10.data       264000                       # Number of bytes read from this memory
system.mem_ctrls.bytes_read::.switch_cpus_11.inst         5568                       # Number of bytes read from this memory
system.mem_ctrls.bytes_read::.switch_cpus_11.data      1385600                       # Number of bytes read from this memory
system.mem_ctrls.bytes_read::total            1862848                       # Number of bytes read from this memory
system.mem_ctrls.bytes_inst_read::.cpu0.inst           64                       # Number of instructions bytes read from this memory
system.mem_ctrls.bytes_inst_read::.cpu1.inst           64                       # Number of instructions bytes read from this memory
system.mem_ctrls.bytes_inst_read::.switch_cpus0.inst        42496                       # Number of instructions bytes read from this memory
system.mem_ctrls.bytes_inst_read::.switch_cpus1.inst        12672                       # Number of instructions bytes read from this memory
system.mem_ctrls.bytes_inst_read::.switch_cpus_10.inst        10304                       # Number of instructions bytes read from this memory
system.mem_ctrls.bytes_inst_read::.switch_cpus_11.inst         5568                       # Number of instructions bytes read from this memory
system.mem_ctrls.bytes_inst_read::total         71168                       # Number of instructions bytes read from this memory
system.mem_ctrls.num_reads::.cpu0.inst              1                       # Number of read requests responded to by this memory
system.mem_ctrls.num_reads::.cpu0.data              1                       # Number of read requests responded to by this memory
system.mem_ctrls.num_reads::.cpu1.inst              1                       # Number of read requests responded to by this memory
system.mem_ctrls.num_reads::.cpu1.data              1                       # Number of read requests responded to by this memory
system.mem_ctrls.num_reads::.switch_cpus0.inst          664                       # Number of read requests responded to by this memory
system.mem_ctrls.num_reads::.switch_cpus0.data         1099                       # Number of read requests responded to by this memory
system.mem_ctrls.num_reads::.switch_cpus1.inst          198                       # Number of read requests responded to by this memory
system.mem_ctrls.num_reads::.switch_cpus1.data         1119                       # Number of read requests responded to by this memory
system.mem_ctrls.num_reads::.switch_cpus_10.inst          161                       # Number of read requests responded to by this memory
system.mem_ctrls.num_reads::.switch_cpus_10.data         4125                       # Number of read requests responded to by this memory
system.mem_ctrls.num_reads::.switch_cpus_11.inst           87                       # Number of read requests responded to by this memory
system.mem_ctrls.num_reads::.switch_cpus_11.data        21650                       # Number of read requests responded to by this memory
system.mem_ctrls.num_reads::total               29107                       # Number of read requests responded to by this memory
system.mem_ctrls.bw_read::.cpu0.inst             3035                       # Total read bandwidth from this memory (bytes/s)
system.mem_ctrls.bw_read::.cpu0.data             3035                       # Total read bandwidth from this memory (bytes/s)
system.mem_ctrls.bw_read::.cpu1.inst             3035                       # Total read bandwidth from this memory (bytes/s)
system.mem_ctrls.bw_read::.cpu1.data             3035                       # Total read bandwidth from this memory (bytes/s)
system.mem_ctrls.bw_read::.switch_cpus0.inst      2015146                       # Total read bandwidth from this memory (bytes/s)
system.mem_ctrls.bw_read::.switch_cpus0.data      3335310                       # Total read bandwidth from this memory (bytes/s)
system.mem_ctrls.bw_read::.switch_cpus1.inst       600902                       # Total read bandwidth from this memory (bytes/s)
system.mem_ctrls.bw_read::.switch_cpus1.data      3396007                       # Total read bandwidth from this memory (bytes/s)
system.mem_ctrls.bw_read::.switch_cpus_10.inst       488612                       # Total read bandwidth from this memory (bytes/s)
system.mem_ctrls.bw_read::.switch_cpus_10.data     12518792                       # Total read bandwidth from this memory (bytes/s)
system.mem_ctrls.bw_read::.switch_cpus_11.inst       264033                       # Total read bandwidth from this memory (bytes/s)
system.mem_ctrls.bw_read::.switch_cpus_11.data     65704693                       # Total read bandwidth from this memory (bytes/s)
system.mem_ctrls.bw_read::total              88335635                       # Total read bandwidth from this memory (bytes/s)
system.mem_ctrls.bw_inst_read::.cpu0.inst         3035                       # Instruction read bandwidth from this memory (bytes/s)
system.mem_ctrls.bw_inst_read::.cpu1.inst         3035                       # Instruction read bandwidth from this memory (bytes/s)
system.mem_ctrls.bw_inst_read::.switch_cpus0.inst      2015146                       # Instruction read bandwidth from this memory (bytes/s)
system.mem_ctrls.bw_inst_read::.switch_cpus1.inst       600902                       # Instruction read bandwidth from this memory (bytes/s)
system.mem_ctrls.bw_inst_read::.switch_cpus_10.inst       488612                       # Instruction read bandwidth from this memory (bytes/s)
system.mem_ctrls.bw_inst_read::.switch_cpus_11.inst       264033                       # Instruction read bandwidth from this memory (bytes/s)
system.mem_ctrls.bw_inst_read::total          3374763                       # Instruction read bandwidth from this memory (bytes/s)
system.mem_ctrls.bw_total::.cpu0.inst            3035                       # Total bandwidth to/from this memory (bytes/s)
system.mem_ctrls.bw_total::.cpu0.data            3035                       # Total bandwidth to/from this memory (bytes/s)
system.mem_ctrls.bw_total::.cpu1.inst            3035                       # Total bandwidth to/from this memory (bytes/s)
system.mem_ctrls.bw_total::.cpu1.data            3035                       # Total bandwidth to/from this memory (bytes/s)
system.mem_ctrls.bw_total::.switch_cpus0.inst      2015146                       # Total bandwidth to/from this memory (bytes/s)
system.mem_ctrls.bw_total::.switch_cpus0.data      3335310                       # Total bandwidth to/from this memory (bytes/s)
system.mem_ctrls.bw_total::.switch_cpus1.inst       600902                       # Total bandwidth to/from this memory (bytes/s)
system.mem_ctrls.bw_total::.switch_cpus1.data      3396007                       # Total bandwidth to/from this memory (bytes/s)
system.mem_ctrls.bw_total::.switch_cpus_10.inst       488612                       # Total bandwidth to/from this memory (bytes/s)
system.mem_ctrls.bw_total::.switch_cpus_10.data     12518792                       # Total bandwidth to/from this memory (bytes/s)
system.mem_ctrls.bw_total::.switch_cpus_11.inst       264033                       # Total bandwidth to/from this memory (bytes/s)
system.mem_ctrls.bw_total::.switch_cpus_11.data     65704693                       # Total bandwidth to/from this memory (bytes/s)
system.mem_ctrls.bw_total::total             88335635                       # Total bandwidth to/from this memory (bytes/s)
system.cpu_clk_domain.clock                       417                       # Clock period in ticks

---------- End Simulation Statistics   ----------
