
---------- Begin Simulation Statistics ----------
final_tick                               1312387845186                       # Number of ticks from beginning of simulation (restored from checkpoints and never reset)
host_inst_rate                                 168993                       # Simulator instruction rate (inst/s)
host_mem_usage                                4448740                       # Number of bytes of host memory used
host_op_rate                                   319845                       # Simulator op (including micro ops) rate (op/s)
host_seconds                                   504.76                       # Real time elapsed on the host
host_tick_rate                               37713595                       # Simulator tick rate (ticks/s)
sim_freq                                 1000000000000                       # Frequency of simulated ticks
sim_insts                                    85300185                       # Number of instructions simulated
sim_ops                                     161443493                       # Number of ops (including micro ops) simulated
sim_seconds                                  0.019036                       # Number of seconds simulated
sim_ticks                                 19036137570                       # Number of ticks simulated
system.cpu0.committedInsts                          2                       # Number of instructions committed
system.cpu0.committedOps                            3                       # Number of ops (including micro ops) committed
system.cpu0.dtb.rdAccesses                          1                       # TLB accesses on read requests
system.cpu0.dtb.rdMisses                            0                       # TLB misses on read requests
system.cpu0.dtb.wrAccesses                          0                       # TLB accesses on write requests
system.cpu0.dtb.wrMisses                            0                       # TLB misses on write requests
system.cpu0.idle_fraction                           0                       # Percentage of idle cycles
system.cpu0.itb.rdAccesses                          0                       # TLB accesses on read requests
system.cpu0.itb.rdMisses                            0                       # TLB misses on read requests
system.cpu0.itb.wrAccesses                          3                       # TLB accesses on write requests
system.cpu0.itb.wrMisses                            0                       # TLB misses on write requests
system.cpu0.not_idle_fraction                       1                       # Percentage of non-idle cycles
system.cpu0.numCycles                               4                       # number of cpu cycles simulated
system.cpu0.numWorkItemsCompleted                   0                       # number of work items this cpu completed
system.cpu0.numWorkItemsStarted                     0                       # number of work items this cpu started
system.cpu0.num_busy_cycles                         4                       # Number of busy cycles
system.cpu0.num_cc_register_reads                   1                       # number of times the CC registers were read
system.cpu0.num_cc_register_writes                  2                       # number of times the CC registers were written
system.cpu0.num_conditional_control_insts            0                       # number of instructions that are conditional controls
system.cpu0.num_fp_alu_accesses                     0                       # Number of float alu accesses
system.cpu0.num_fp_insts                            0                       # number of float instructions
system.cpu0.num_fp_register_reads                   0                       # number of times the floating registers were read
system.cpu0.num_fp_register_writes                  0                       # number of times the floating registers were written
system.cpu0.num_func_calls                          0                       # number of times a function call or return occured
system.cpu0.num_idle_cycles                         0                       # Number of idle cycles
system.cpu0.num_int_alu_accesses                    3                       # Number of integer alu accesses
system.cpu0.num_int_insts                           3                       # number of integer instructions
system.cpu0.num_int_register_reads                  8                       # number of times the integer registers were read
system.cpu0.num_int_register_writes                 3                       # number of times the integer registers were written
system.cpu0.num_load_insts                          1                       # Number of load instructions
system.cpu0.num_mem_refs                            1                       # number of memory refs
system.cpu0.num_store_insts                         0                       # Number of store instructions
system.cpu0.num_vec_alu_accesses                    0                       # Number of vector alu accesses
system.cpu0.num_vec_insts                           0                       # number of vector instructions
system.cpu0.num_vec_register_reads                  0                       # number of times the vector registers were read
system.cpu0.num_vec_register_writes                 0                       # number of times the vector registers were written
system.cpu0.op_class::No_OpClass                    0      0.00%      0.00% # Class of executed instruction
system.cpu0.op_class::IntAlu                        2     66.67%     66.67% # Class of executed instruction
system.cpu0.op_class::IntMult                       0      0.00%     66.67% # Class of executed instruction
system.cpu0.op_class::IntDiv                        0      0.00%     66.67% # Class of executed instruction
system.cpu0.op_class::FloatAdd                      0      0.00%     66.67% # Class of executed instruction
system.cpu0.op_class::FloatCmp                      0      0.00%     66.67% # Class of executed instruction
system.cpu0.op_class::FloatCvt                      0      0.00%     66.67% # Class of executed instruction
system.cpu0.op_class::FloatMult                     0      0.00%     66.67% # Class of executed instruction
system.cpu0.op_class::FloatMultAcc                  0      0.00%     66.67% # Class of executed instruction
system.cpu0.op_class::FloatDiv                      0      0.00%     66.67% # Class of executed instruction
system.cpu0.op_class::FloatMisc                     0      0.00%     66.67% # Class of executed instruction
system.cpu0.op_class::FloatSqrt                     0      0.00%     66.67% # Class of executed instruction
system.cpu0.op_class::SimdAdd                       0      0.00%     66.67% # Class of executed instruction
system.cpu0.op_class::SimdAddAcc                    0      0.00%     66.67% # Class of executed instruction
system.cpu0.op_class::SimdAlu                       0      0.00%     66.67% # Class of executed instruction
system.cpu0.op_class::SimdCmp                       0      0.00%     66.67% # Class of executed instruction
system.cpu0.op_class::SimdCvt                       0      0.00%     66.67% # Class of executed instruction
system.cpu0.op_class::SimdMisc                      0      0.00%     66.67% # Class of executed instruction
system.cpu0.op_class::SimdMult                      0      0.00%     66.67% # Class of executed instruction
system.cpu0.op_class::SimdMultAcc                   0      0.00%     66.67% # Class of executed instruction
system.cpu0.op_class::SimdShift                     0      0.00%     66.67% # Class of executed instruction
system.cpu0.op_class::SimdShiftAcc                  0      0.00%     66.67% # Class of executed instruction
system.cpu0.op_class::SimdDiv                       0      0.00%     66.67% # Class of executed instruction
system.cpu0.op_class::SimdSqrt                      0      0.00%     66.67% # Class of executed instruction
system.cpu0.op_class::SimdFloatAdd                  0      0.00%     66.67% # Class of executed instruction
system.cpu0.op_class::SimdFloatAlu                  0      0.00%     66.67% # Class of executed instruction
system.cpu0.op_class::SimdFloatCmp                  0      0.00%     66.67% # Class of executed instruction
system.cpu0.op_class::SimdFloatCvt                  0      0.00%     66.67% # Class of executed instruction
system.cpu0.op_class::SimdFloatDiv                  0      0.00%     66.67% # Class of executed instruction
system.cpu0.op_class::SimdFloatMisc                 0      0.00%     66.67% # Class of executed instruction
system.cpu0.op_class::SimdFloatMult                 0      0.00%     66.67% # Class of executed instruction
system.cpu0.op_class::SimdFloatMultAcc              0      0.00%     66.67% # Class of executed instruction
system.cpu0.op_class::SimdFloatSqrt                 0      0.00%     66.67% # Class of executed instruction
system.cpu0.op_class::SimdReduceAdd                 0      0.00%     66.67% # Class of executed instruction
system.cpu0.op_class::SimdReduceAlu                 0      0.00%     66.67% # Class of executed instruction
system.cpu0.op_class::SimdReduceCmp                 0      0.00%     66.67% # Class of executed instruction
system.cpu0.op_class::SimdFloatReduceAdd            0      0.00%     66.67% # Class of executed instruction
system.cpu0.op_class::SimdFloatReduceCmp            0      0.00%     66.67% # Class of executed instruction
system.cpu0.op_class::SimdAes                       0      0.00%     66.67% # Class of executed instruction
system.cpu0.op_class::SimdAesMix                    0      0.00%     66.67% # Class of executed instruction
system.cpu0.op_class::SimdSha1Hash                  0      0.00%     66.67% # Class of executed instruction
system.cpu0.op_class::SimdSha1Hash2                 0      0.00%     66.67% # Class of executed instruction
system.cpu0.op_class::SimdSha256Hash                0      0.00%     66.67% # Class of executed instruction
system.cpu0.op_class::SimdSha256Hash2               0      0.00%     66.67% # Class of executed instruction
system.cpu0.op_class::SimdShaSigma2                 0      0.00%     66.67% # Class of executed instruction
system.cpu0.op_class::SimdShaSigma3                 0      0.00%     66.67% # Class of executed instruction
system.cpu0.op_class::SimdPredAlu                   0      0.00%     66.67% # Class of executed instruction
system.cpu0.op_class::MemRead                       1     33.33%    100.00% # Class of executed instruction
system.cpu0.op_class::MemWrite                      0      0.00%    100.00% # Class of executed instruction
system.cpu0.op_class::FloatMemRead                  0      0.00%    100.00% # Class of executed instruction
system.cpu0.op_class::FloatMemWrite                 0      0.00%    100.00% # Class of executed instruction
system.cpu0.op_class::IprAccess                     0      0.00%    100.00% # Class of executed instruction
system.cpu0.op_class::InstPrefetch                  0      0.00%    100.00% # Class of executed instruction
system.cpu0.op_class::total                         3                       # Class of executed instruction
system.cpu0.toL2Bus.snoop_filter.hit_multi_requests         4851                       # Number of requests hitting in the snoop filter with multiple (>1) holders of the requested data.
system.cpu0.toL2Bus.snoop_filter.hit_multi_snoops            0                       # Number of snoops hitting in the snoop filter with multiple (>1) holders of the requested data.
system.cpu0.toL2Bus.snoop_filter.hit_single_requests       455699                       # Number of requests hitting in the snoop filter with a single holder of the requested data.
system.cpu0.toL2Bus.snoop_filter.hit_single_snoops            0                       # Number of snoops hitting in the snoop filter with a single holder of the requested data.
system.cpu0.toL2Bus.snoop_filter.tot_requests       912419                       # Total number of requests made to the snoop filter.
system.cpu0.toL2Bus.snoop_filter.tot_snoops            0                       # Total number of snoops made to the snoop filter.
system.cpu0.toL3Bus.snoop_filter.hit_multi_requests            0                       # Number of requests hitting in the snoop filter with multiple (>1) holders of the requested data.
system.cpu0.toL3Bus.snoop_filter.hit_multi_snoops            0                       # Number of snoops hitting in the snoop filter with multiple (>1) holders of the requested data.
system.cpu0.toL3Bus.snoop_filter.hit_single_requests            0                       # Number of requests hitting in the snoop filter with a single holder of the requested data.
system.cpu0.toL3Bus.snoop_filter.hit_single_snoops            0                       # Number of snoops hitting in the snoop filter with a single holder of the requested data.
system.cpu0.toL3Bus.snoop_filter.tot_requests         1256                       # Total number of requests made to the snoop filter.
system.cpu0.toL3Bus.snoop_filter.tot_snoops            0                       # Total number of snoops made to the snoop filter.
system.cpu0.workload.numSyscalls                    0                       # Number of system calls
system.cpu1.Branches                                1                       # Number of branches fetched
system.cpu1.committedInsts                          1                       # Number of instructions committed
system.cpu1.committedOps                            5                       # Number of ops (including micro ops) committed
system.cpu1.dtb.rdAccesses                          0                       # TLB accesses on read requests
system.cpu1.dtb.rdMisses                            0                       # TLB misses on read requests
system.cpu1.dtb.wrAccesses                          1                       # TLB accesses on write requests
system.cpu1.dtb.wrMisses                            0                       # TLB misses on write requests
system.cpu1.idle_fraction                           0                       # Percentage of idle cycles
system.cpu1.itb.rdAccesses                          0                       # TLB accesses on read requests
system.cpu1.itb.rdMisses                            0                       # TLB misses on read requests
system.cpu1.itb.wrAccesses                          2                       # TLB accesses on write requests
system.cpu1.itb.wrMisses                            0                       # TLB misses on write requests
system.cpu1.not_idle_fraction                       1                       # Percentage of non-idle cycles
system.cpu1.numCycles                               6                       # number of cpu cycles simulated
system.cpu1.numWorkItemsCompleted                   0                       # number of work items this cpu completed
system.cpu1.numWorkItemsStarted                     0                       # number of work items this cpu started
system.cpu1.num_busy_cycles                         6                       # Number of busy cycles
system.cpu1.num_conditional_control_insts            0                       # number of instructions that are conditional controls
system.cpu1.num_fp_alu_accesses                     0                       # Number of float alu accesses
system.cpu1.num_fp_insts                            0                       # number of float instructions
system.cpu1.num_fp_register_reads                   0                       # number of times the floating registers were read
system.cpu1.num_fp_register_writes                  0                       # number of times the floating registers were written
system.cpu1.num_func_calls                          1                       # number of times a function call or return occured
system.cpu1.num_idle_cycles                         0                       # Number of idle cycles
system.cpu1.num_int_alu_accesses                    5                       # Number of integer alu accesses
system.cpu1.num_int_insts                           5                       # number of integer instructions
system.cpu1.num_int_register_reads                  9                       # number of times the integer registers were read
system.cpu1.num_int_register_writes                 3                       # number of times the integer registers were written
system.cpu1.num_load_insts                          0                       # Number of load instructions
system.cpu1.num_mem_refs                            1                       # number of memory refs
system.cpu1.num_store_insts                         1                       # Number of store instructions
system.cpu1.num_vec_alu_accesses                    0                       # Number of vector alu accesses
system.cpu1.num_vec_insts                           0                       # number of vector instructions
system.cpu1.num_vec_register_reads                  0                       # number of times the vector registers were read
system.cpu1.num_vec_register_writes                 0                       # number of times the vector registers were written
system.cpu1.op_class::No_OpClass                    0      0.00%      0.00% # Class of executed instruction
system.cpu1.op_class::IntAlu                        4     80.00%     80.00% # Class of executed instruction
system.cpu1.op_class::IntMult                       0      0.00%     80.00% # Class of executed instruction
system.cpu1.op_class::IntDiv                        0      0.00%     80.00% # Class of executed instruction
system.cpu1.op_class::FloatAdd                      0      0.00%     80.00% # Class of executed instruction
system.cpu1.op_class::FloatCmp                      0      0.00%     80.00% # Class of executed instruction
system.cpu1.op_class::FloatCvt                      0      0.00%     80.00% # Class of executed instruction
system.cpu1.op_class::FloatMult                     0      0.00%     80.00% # Class of executed instruction
system.cpu1.op_class::FloatMultAcc                  0      0.00%     80.00% # Class of executed instruction
system.cpu1.op_class::FloatDiv                      0      0.00%     80.00% # Class of executed instruction
system.cpu1.op_class::FloatMisc                     0      0.00%     80.00% # Class of executed instruction
system.cpu1.op_class::FloatSqrt                     0      0.00%     80.00% # Class of executed instruction
system.cpu1.op_class::SimdAdd                       0      0.00%     80.00% # Class of executed instruction
system.cpu1.op_class::SimdAddAcc                    0      0.00%     80.00% # Class of executed instruction
system.cpu1.op_class::SimdAlu                       0      0.00%     80.00% # Class of executed instruction
system.cpu1.op_class::SimdCmp                       0      0.00%     80.00% # Class of executed instruction
system.cpu1.op_class::SimdCvt                       0      0.00%     80.00% # Class of executed instruction
system.cpu1.op_class::SimdMisc                      0      0.00%     80.00% # Class of executed instruction
system.cpu1.op_class::SimdMult                      0      0.00%     80.00% # Class of executed instruction
system.cpu1.op_class::SimdMultAcc                   0      0.00%     80.00% # Class of executed instruction
system.cpu1.op_class::SimdShift                     0      0.00%     80.00% # Class of executed instruction
system.cpu1.op_class::SimdShiftAcc                  0      0.00%     80.00% # Class of executed instruction
system.cpu1.op_class::SimdDiv                       0      0.00%     80.00% # Class of executed instruction
system.cpu1.op_class::SimdSqrt                      0      0.00%     80.00% # Class of executed instruction
system.cpu1.op_class::SimdFloatAdd                  0      0.00%     80.00% # Class of executed instruction
system.cpu1.op_class::SimdFloatAlu                  0      0.00%     80.00% # Class of executed instruction
system.cpu1.op_class::SimdFloatCmp                  0      0.00%     80.00% # Class of executed instruction
system.cpu1.op_class::SimdFloatCvt                  0      0.00%     80.00% # Class of executed instruction
system.cpu1.op_class::SimdFloatDiv                  0      0.00%     80.00% # Class of executed instruction
system.cpu1.op_class::SimdFloatMisc                 0      0.00%     80.00% # Class of executed instruction
system.cpu1.op_class::SimdFloatMult                 0      0.00%     80.00% # Class of executed instruction
system.cpu1.op_class::SimdFloatMultAcc              0      0.00%     80.00% # Class of executed instruction
system.cpu1.op_class::SimdFloatSqrt                 0      0.00%     80.00% # Class of executed instruction
system.cpu1.op_class::SimdReduceAdd                 0      0.00%     80.00% # Class of executed instruction
system.cpu1.op_class::SimdReduceAlu                 0      0.00%     80.00% # Class of executed instruction
system.cpu1.op_class::SimdReduceCmp                 0      0.00%     80.00% # Class of executed instruction
system.cpu1.op_class::SimdFloatReduceAdd            0      0.00%     80.00% # Class of executed instruction
system.cpu1.op_class::SimdFloatReduceCmp            0      0.00%     80.00% # Class of executed instruction
system.cpu1.op_class::SimdAes                       0      0.00%     80.00% # Class of executed instruction
system.cpu1.op_class::SimdAesMix                    0      0.00%     80.00% # Class of executed instruction
system.cpu1.op_class::SimdSha1Hash                  0      0.00%     80.00% # Class of executed instruction
system.cpu1.op_class::SimdSha1Hash2                 0      0.00%     80.00% # Class of executed instruction
system.cpu1.op_class::SimdSha256Hash                0      0.00%     80.00% # Class of executed instruction
system.cpu1.op_class::SimdSha256Hash2               0      0.00%     80.00% # Class of executed instruction
system.cpu1.op_class::SimdShaSigma2                 0      0.00%     80.00% # Class of executed instruction
system.cpu1.op_class::SimdShaSigma3                 0      0.00%     80.00% # Class of executed instruction
system.cpu1.op_class::SimdPredAlu                   0      0.00%     80.00% # Class of executed instruction
system.cpu1.op_class::MemRead                       0      0.00%     80.00% # Class of executed instruction
system.cpu1.op_class::MemWrite                      1     20.00%    100.00% # Class of executed instruction
system.cpu1.op_class::FloatMemRead                  0      0.00%    100.00% # Class of executed instruction
system.cpu1.op_class::FloatMemWrite                 0      0.00%    100.00% # Class of executed instruction
system.cpu1.op_class::IprAccess                     0      0.00%    100.00% # Class of executed instruction
system.cpu1.op_class::InstPrefetch                  0      0.00%    100.00% # Class of executed instruction
system.cpu1.op_class::total                         5                       # Class of executed instruction
system.cpu1.toL2Bus.snoop_filter.hit_multi_requests           33                       # Number of requests hitting in the snoop filter with multiple (>1) holders of the requested data.
system.cpu1.toL2Bus.snoop_filter.hit_multi_snoops            0                       # Number of snoops hitting in the snoop filter with multiple (>1) holders of the requested data.
system.cpu1.toL2Bus.snoop_filter.hit_single_requests        38299                       # Number of requests hitting in the snoop filter with a single holder of the requested data.
system.cpu1.toL2Bus.snoop_filter.hit_single_snoops          330                       # Number of snoops hitting in the snoop filter with a single holder of the requested data.
system.cpu1.toL2Bus.snoop_filter.tot_requests        77395                       # Total number of requests made to the snoop filter.
system.cpu1.toL2Bus.snoop_filter.tot_snoops          330                       # Total number of snoops made to the snoop filter.
system.cpu1.toL3Bus.snoop_filter.hit_multi_requests            0                       # Number of requests hitting in the snoop filter with multiple (>1) holders of the requested data.
system.cpu1.toL3Bus.snoop_filter.hit_multi_snoops            0                       # Number of snoops hitting in the snoop filter with multiple (>1) holders of the requested data.
system.cpu1.toL3Bus.snoop_filter.hit_single_requests        16845                       # Number of requests hitting in the snoop filter with a single holder of the requested data.
system.cpu1.toL3Bus.snoop_filter.hit_single_snoops            0                       # Number of snoops hitting in the snoop filter with a single holder of the requested data.
system.cpu1.toL3Bus.snoop_filter.tot_requests        38109                       # Total number of requests made to the snoop filter.
system.cpu1.toL3Bus.snoop_filter.tot_snoops            0                       # Total number of snoops made to the snoop filter.
system.cpu1.workload.numSyscalls                11376                       # Number of system calls
system.membus.snoop_filter.hit_multi_requests            0                       # Number of requests hitting in the snoop filter with multiple (>1) holders of the requested data.
system.membus.snoop_filter.hit_multi_snoops            0                       # Number of snoops hitting in the snoop filter with multiple (>1) holders of the requested data.
system.membus.snoop_filter.hit_single_requests            0                       # Number of requests hitting in the snoop filter with a single holder of the requested data.
system.membus.snoop_filter.hit_single_snoops            0                       # Number of snoops hitting in the snoop filter with a single holder of the requested data.
system.membus.snoop_filter.tot_requests         22512                       # Total number of requests made to the snoop filter.
system.membus.snoop_filter.tot_snoops               0                       # Total number of snoops made to the snoop filter.
system.switch_cpus0.Branches                   169976                       # Number of branches fetched
system.switch_cpus0.committedInsts             959279                       # Number of instructions committed
system.switch_cpus0.committedOps              1729332                       # Number of ops (including micro ops) committed
system.switch_cpus0.dtb.rdAccesses             352758                       # TLB accesses on read requests
system.switch_cpus0.dtb.rdMisses                 1752                       # TLB misses on read requests
system.switch_cpus0.dtb.wrAccesses             157712                       # TLB accesses on write requests
system.switch_cpus0.dtb.wrMisses                  331                       # TLB misses on write requests
system.switch_cpus0.idle_fraction            0.000000                       # Percentage of idle cycles
system.switch_cpus0.itb.rdAccesses                  0                       # TLB accesses on read requests
system.switch_cpus0.itb.rdMisses                    0                       # TLB misses on read requests
system.switch_cpus0.itb.wrAccesses            1291603                       # TLB accesses on write requests
system.switch_cpus0.itb.wrMisses                   37                       # TLB misses on write requests
system.switch_cpus0.not_idle_fraction        1.000000                       # Percentage of non-idle cycles
system.switch_cpus0.numCycles                 5747816                       # number of cpu cycles simulated
system.switch_cpus0.numWorkItemsCompleted            0                       # number of work items this cpu completed
system.switch_cpus0.numWorkItemsStarted             0                       # number of work items this cpu started
system.switch_cpus0.num_busy_cycles      5747815.244540                       # Number of busy cycles
system.switch_cpus0.num_cc_register_reads       767441                       # number of times the CC registers were read
system.switch_cpus0.num_cc_register_writes       368547                       # number of times the CC registers were written
system.switch_cpus0.num_conditional_control_insts       106283                       # number of instructions that are conditional controls
system.switch_cpus0.num_fp_alu_accesses        355718                       # Number of float alu accesses
system.switch_cpus0.num_fp_insts               355718                       # number of float instructions
system.switch_cpus0.num_fp_register_reads       538527                       # number of times the floating registers were read
system.switch_cpus0.num_fp_register_writes       306127                       # number of times the floating registers were written
system.switch_cpus0.num_func_calls              53226                       # number of times a function call or return occured
system.switch_cpus0.num_idle_cycles          0.755460                       # Number of idle cycles
system.switch_cpus0.num_int_alu_accesses      1525526                       # Number of integer alu accesses
system.switch_cpus0.num_int_insts             1525526                       # number of integer instructions
system.switch_cpus0.num_int_register_reads      3267181                       # number of times the integer registers were read
system.switch_cpus0.num_int_register_writes      1071418                       # number of times the integer registers were written
system.switch_cpus0.num_load_insts             352479                       # Number of load instructions
system.switch_cpus0.num_mem_refs               510191                       # number of memory refs
system.switch_cpus0.num_store_insts            157712                       # Number of store instructions
system.switch_cpus0.num_vec_alu_accesses            0                       # Number of vector alu accesses
system.switch_cpus0.num_vec_insts                   0                       # number of vector instructions
system.switch_cpus0.num_vec_register_reads            0                       # number of times the vector registers were read
system.switch_cpus0.num_vec_register_writes            0                       # number of times the vector registers were written
system.switch_cpus0.op_class::No_OpClass         9100      0.53%      0.53% # Class of executed instruction
system.switch_cpus0.op_class::IntAlu          1033796     59.78%     60.31% # Class of executed instruction
system.switch_cpus0.op_class::IntMult            4076      0.24%     60.54% # Class of executed instruction
system.switch_cpus0.op_class::IntDiv                0      0.00%     60.54% # Class of executed instruction
system.switch_cpus0.op_class::FloatAdd           3582      0.21%     60.75% # Class of executed instruction
system.switch_cpus0.op_class::FloatCmp              0      0.00%     60.75% # Class of executed instruction
system.switch_cpus0.op_class::FloatCvt              0      0.00%     60.75% # Class of executed instruction
system.switch_cpus0.op_class::FloatMult             0      0.00%     60.75% # Class of executed instruction
system.switch_cpus0.op_class::FloatMultAcc            0      0.00%     60.75% # Class of executed instruction
system.switch_cpus0.op_class::FloatDiv              0      0.00%     60.75% # Class of executed instruction
system.switch_cpus0.op_class::FloatMisc             0      0.00%     60.75% # Class of executed instruction
system.switch_cpus0.op_class::FloatSqrt             0      0.00%     60.75% # Class of executed instruction
system.switch_cpus0.op_class::SimdAdd               0      0.00%     60.75% # Class of executed instruction
system.switch_cpus0.op_class::SimdAddAcc            0      0.00%     60.75% # Class of executed instruction
system.switch_cpus0.op_class::SimdAlu           10680      0.62%     61.37% # Class of executed instruction
system.switch_cpus0.op_class::SimdCmp               0      0.00%     61.37% # Class of executed instruction
system.switch_cpus0.op_class::SimdCvt               0      0.00%     61.37% # Class of executed instruction
system.switch_cpus0.op_class::SimdMisc            282      0.02%     61.38% # Class of executed instruction
system.switch_cpus0.op_class::SimdMult              0      0.00%     61.38% # Class of executed instruction
system.switch_cpus0.op_class::SimdMultAcc            0      0.00%     61.38% # Class of executed instruction
system.switch_cpus0.op_class::SimdShift             0      0.00%     61.38% # Class of executed instruction
system.switch_cpus0.op_class::SimdShiftAcc            0      0.00%     61.38% # Class of executed instruction
system.switch_cpus0.op_class::SimdDiv               0      0.00%     61.38% # Class of executed instruction
system.switch_cpus0.op_class::SimdSqrt              0      0.00%     61.38% # Class of executed instruction
system.switch_cpus0.op_class::SimdFloatAdd        64163      3.71%     65.09% # Class of executed instruction
system.switch_cpus0.op_class::SimdFloatAlu            0      0.00%     65.09% # Class of executed instruction
system.switch_cpus0.op_class::SimdFloatCmp          216      0.01%     65.11% # Class of executed instruction
system.switch_cpus0.op_class::SimdFloatCvt        27489      1.59%     66.70% # Class of executed instruction
system.switch_cpus0.op_class::SimdFloatDiv         2388      0.14%     66.83% # Class of executed instruction
system.switch_cpus0.op_class::SimdFloatMisc            0      0.00%     66.83% # Class of executed instruction
system.switch_cpus0.op_class::SimdFloatMult        63119      3.65%     70.48% # Class of executed instruction
system.switch_cpus0.op_class::SimdFloatMultAcc            0      0.00%     70.48% # Class of executed instruction
system.switch_cpus0.op_class::SimdFloatSqrt          250      0.01%     70.50% # Class of executed instruction
system.switch_cpus0.op_class::SimdReduceAdd            0      0.00%     70.50% # Class of executed instruction
system.switch_cpus0.op_class::SimdReduceAlu            0      0.00%     70.50% # Class of executed instruction
system.switch_cpus0.op_class::SimdReduceCmp            0      0.00%     70.50% # Class of executed instruction
system.switch_cpus0.op_class::SimdFloatReduceAdd            0      0.00%     70.50% # Class of executed instruction
system.switch_cpus0.op_class::SimdFloatReduceCmp            0      0.00%     70.50% # Class of executed instruction
system.switch_cpus0.op_class::SimdAes               0      0.00%     70.50% # Class of executed instruction
system.switch_cpus0.op_class::SimdAesMix            0      0.00%     70.50% # Class of executed instruction
system.switch_cpus0.op_class::SimdSha1Hash            0      0.00%     70.50% # Class of executed instruction
system.switch_cpus0.op_class::SimdSha1Hash2            0      0.00%     70.50% # Class of executed instruction
system.switch_cpus0.op_class::SimdSha256Hash            0      0.00%     70.50% # Class of executed instruction
system.switch_cpus0.op_class::SimdSha256Hash2            0      0.00%     70.50% # Class of executed instruction
system.switch_cpus0.op_class::SimdShaSigma2            0      0.00%     70.50% # Class of executed instruction
system.switch_cpus0.op_class::SimdShaSigma3            0      0.00%     70.50% # Class of executed instruction
system.switch_cpus0.op_class::SimdPredAlu            0      0.00%     70.50% # Class of executed instruction
system.switch_cpus0.op_class::MemRead          217891     12.60%     83.10% # Class of executed instruction
system.switch_cpus0.op_class::MemWrite         131539      7.61%     90.70% # Class of executed instruction
system.switch_cpus0.op_class::FloatMemRead       134588      7.78%     98.49% # Class of executed instruction
system.switch_cpus0.op_class::FloatMemWrite        26173      1.51%    100.00% # Class of executed instruction
system.switch_cpus0.op_class::IprAccess             0      0.00%    100.00% # Class of executed instruction
system.switch_cpus0.op_class::InstPrefetch            0      0.00%    100.00% # Class of executed instruction
system.switch_cpus0.op_class::total           1729332                       # Class of executed instruction
system.switch_cpus1.Branches                   224834                       # Number of branches fetched
system.switch_cpus1.committedInsts            1000001                       # Number of instructions committed
system.switch_cpus1.committedOps              2024684                       # Number of ops (including micro ops) committed
system.switch_cpus1.dtb.rdAccesses             291888                       # TLB accesses on read requests
system.switch_cpus1.dtb.rdMisses                   40                       # TLB misses on read requests
system.switch_cpus1.dtb.wrAccesses             213202                       # TLB accesses on write requests
system.switch_cpus1.dtb.wrMisses                    3                       # TLB misses on write requests
system.switch_cpus1.idle_fraction            0.000000                       # Percentage of idle cycles
system.switch_cpus1.itb.rdAccesses                  0                       # TLB accesses on read requests
system.switch_cpus1.itb.rdMisses                    0                       # TLB misses on read requests
system.switch_cpus1.itb.wrAccesses            1267697                       # TLB accesses on write requests
system.switch_cpus1.itb.wrMisses                   27                       # TLB misses on write requests
system.switch_cpus1.not_idle_fraction        1.000000                       # Percentage of non-idle cycles
system.switch_cpus1.numCycles                 5747816                       # number of cpu cycles simulated
system.switch_cpus1.numWorkItemsCompleted            0                       # number of work items this cpu completed
system.switch_cpus1.numWorkItemsStarted             0                       # number of work items this cpu started
system.switch_cpus1.num_busy_cycles      5747815.244540                       # Number of busy cycles
system.switch_cpus1.num_cc_register_reads       839766                       # number of times the CC registers were read
system.switch_cpus1.num_cc_register_writes       449805                       # number of times the CC registers were written
system.switch_cpus1.num_conditional_control_insts       102459                       # number of instructions that are conditional controls
system.switch_cpus1.num_fp_alu_accesses         16406                       # Number of float alu accesses
system.switch_cpus1.num_fp_insts                16406                       # number of float instructions
system.switch_cpus1.num_fp_register_reads        27540                       # number of times the floating registers were read
system.switch_cpus1.num_fp_register_writes        14430                       # number of times the floating registers were written
system.switch_cpus1.num_func_calls             106054                       # number of times a function call or return occured
system.switch_cpus1.num_idle_cycles          0.755460                       # Number of idle cycles
system.switch_cpus1.num_int_alu_accesses      2003876                       # Number of integer alu accesses
system.switch_cpus1.num_int_insts             2003876                       # number of integer instructions
system.switch_cpus1.num_int_register_reads      4247890                       # number of times the integer registers were read
system.switch_cpus1.num_int_register_writes      1572123                       # number of times the integer registers were written
system.switch_cpus1.num_load_insts             291886                       # Number of load instructions
system.switch_cpus1.num_mem_refs               505086                       # number of memory refs
system.switch_cpus1.num_store_insts            213200                       # Number of store instructions
system.switch_cpus1.num_vec_alu_accesses            0                       # Number of vector alu accesses
system.switch_cpus1.num_vec_insts                   0                       # number of vector instructions
system.switch_cpus1.num_vec_register_reads            0                       # number of times the vector registers were read
system.switch_cpus1.num_vec_register_writes            0                       # number of times the vector registers were written
system.switch_cpus1.op_class::No_OpClass         6797      0.34%      0.34% # Class of executed instruction
system.switch_cpus1.op_class::IntAlu          1497763     73.98%     74.31% # Class of executed instruction
system.switch_cpus1.op_class::IntMult             941      0.05%     74.36% # Class of executed instruction
system.switch_cpus1.op_class::IntDiv             2289      0.11%     74.47% # Class of executed instruction
system.switch_cpus1.op_class::FloatAdd            654      0.03%     74.50% # Class of executed instruction
system.switch_cpus1.op_class::FloatCmp              0      0.00%     74.50% # Class of executed instruction
system.switch_cpus1.op_class::FloatCvt              0      0.00%     74.50% # Class of executed instruction
system.switch_cpus1.op_class::FloatMult             0      0.00%     74.50% # Class of executed instruction
system.switch_cpus1.op_class::FloatMultAcc            0      0.00%     74.50% # Class of executed instruction
system.switch_cpus1.op_class::FloatDiv              0      0.00%     74.50% # Class of executed instruction
system.switch_cpus1.op_class::FloatMisc             0      0.00%     74.50% # Class of executed instruction
system.switch_cpus1.op_class::FloatSqrt             0      0.00%     74.50% # Class of executed instruction
system.switch_cpus1.op_class::SimdAdd               0      0.00%     74.50% # Class of executed instruction
system.switch_cpus1.op_class::SimdAddAcc            0      0.00%     74.50% # Class of executed instruction
system.switch_cpus1.op_class::SimdAlu            2624      0.13%     74.63% # Class of executed instruction
system.switch_cpus1.op_class::SimdCmp               0      0.00%     74.63% # Class of executed instruction
system.switch_cpus1.op_class::SimdCvt            2630      0.13%     74.76% # Class of executed instruction
system.switch_cpus1.op_class::SimdMisc           5900      0.29%     75.05% # Class of executed instruction
system.switch_cpus1.op_class::SimdMult              0      0.00%     75.05% # Class of executed instruction
system.switch_cpus1.op_class::SimdMultAcc            0      0.00%     75.05% # Class of executed instruction
system.switch_cpus1.op_class::SimdShift             0      0.00%     75.05% # Class of executed instruction
system.switch_cpus1.op_class::SimdShiftAcc            0      0.00%     75.05% # Class of executed instruction
system.switch_cpus1.op_class::SimdDiv               0      0.00%     75.05% # Class of executed instruction
system.switch_cpus1.op_class::SimdSqrt              0      0.00%     75.05% # Class of executed instruction
system.switch_cpus1.op_class::SimdFloatAdd            0      0.00%     75.05% # Class of executed instruction
system.switch_cpus1.op_class::SimdFloatAlu            0      0.00%     75.05% # Class of executed instruction
system.switch_cpus1.op_class::SimdFloatCmp            0      0.00%     75.05% # Class of executed instruction
system.switch_cpus1.op_class::SimdFloatCvt            0      0.00%     75.05% # Class of executed instruction
system.switch_cpus1.op_class::SimdFloatDiv            0      0.00%     75.05% # Class of executed instruction
system.switch_cpus1.op_class::SimdFloatMisc            0      0.00%     75.05% # Class of executed instruction
system.switch_cpus1.op_class::SimdFloatMult            0      0.00%     75.05% # Class of executed instruction
system.switch_cpus1.op_class::SimdFloatMultAcc            0      0.00%     75.05% # Class of executed instruction
system.switch_cpus1.op_class::SimdFloatSqrt            0      0.00%     75.05% # Class of executed instruction
system.switch_cpus1.op_class::SimdReduceAdd            0      0.00%     75.05% # Class of executed instruction
system.switch_cpus1.op_class::SimdReduceAlu            0      0.00%     75.05% # Class of executed instruction
system.switch_cpus1.op_class::SimdReduceCmp            0      0.00%     75.05% # Class of executed instruction
system.switch_cpus1.op_class::SimdFloatReduceAdd            0      0.00%     75.05% # Class of executed instruction
system.switch_cpus1.op_class::SimdFloatReduceCmp            0      0.00%     75.05% # Class of executed instruction
system.switch_cpus1.op_class::SimdAes               0      0.00%     75.05% # Class of executed instruction
system.switch_cpus1.op_class::SimdAesMix            0      0.00%     75.05% # Class of executed instruction
system.switch_cpus1.op_class::SimdSha1Hash            0      0.00%     75.05% # Class of executed instruction
system.switch_cpus1.op_class::SimdSha1Hash2            0      0.00%     75.05% # Class of executed instruction
system.switch_cpus1.op_class::SimdSha256Hash            0      0.00%     75.05% # Class of executed instruction
system.switch_cpus1.op_class::SimdSha256Hash2            0      0.00%     75.05% # Class of executed instruction
system.switch_cpus1.op_class::SimdShaSigma2            0      0.00%     75.05% # Class of executed instruction
system.switch_cpus1.op_class::SimdShaSigma3            0      0.00%     75.05% # Class of executed instruction
system.switch_cpus1.op_class::SimdPredAlu            0      0.00%     75.05% # Class of executed instruction
system.switch_cpus1.op_class::MemRead          289904     14.32%     89.37% # Class of executed instruction
system.switch_cpus1.op_class::MemWrite         212546     10.50%     99.87% # Class of executed instruction
system.switch_cpus1.op_class::FloatMemRead         1982      0.10%     99.97% # Class of executed instruction
system.switch_cpus1.op_class::FloatMemWrite          654      0.03%    100.00% # Class of executed instruction
system.switch_cpus1.op_class::IprAccess             0      0.00%    100.00% # Class of executed instruction
system.switch_cpus1.op_class::InstPrefetch            0      0.00%    100.00% # Class of executed instruction
system.switch_cpus1.op_class::total           2024684                       # Class of executed instruction
system.switch_cpus_10.branchPred.BTBCorrect            0                       # Number of correct BTB predictions (this stat may not work properly.
system.switch_cpus_10.branchPred.BTBHitPct     0.000000                       # BTB Hit Percentage
system.switch_cpus_10.branchPred.BTBHits            0                       # Number of BTB hits
system.switch_cpus_10.branchPred.BTBLookups      8628200                       # Number of BTB lookups
system.switch_cpus_10.branchPred.RASInCorrect         1594                       # Number of incorrect RAS predictions.
system.switch_cpus_10.branchPred.condIncorrect       675780                       # Number of conditional branches incorrect
system.switch_cpus_10.branchPred.condPredicted      8125141                       # Number of conditional branches predicted
system.switch_cpus_10.branchPred.indirectHits      4357823                       # Number of indirect target hits.
system.switch_cpus_10.branchPred.indirectLookups      8628200                       # Number of indirect predictor lookups.
system.switch_cpus_10.branchPred.indirectMisses      4270377                       # Number of indirect misses.
system.switch_cpus_10.branchPred.lookups     11531921                       # Number of BP lookups
system.switch_cpus_10.branchPred.usedRAS      1574053                       # Number of times the RAS was used to get a target.
system.switch_cpus_10.branchPredindirectMispredicted       558414                       # Number of mispredicted indirect branches.
system.switch_cpus_10.cc_regfile_reads       41494465                       # number of cc regfile reads
system.switch_cpus_10.cc_regfile_writes      20389299                       # number of cc regfile writes
system.switch_cpus_10.commit.amos                   0                       # Number of atomic instructions committed
system.switch_cpus_10.commit.branchMispredicts       675783                       # The number of times a branch was mispredicted
system.switch_cpus_10.commit.branches         8861351                       # Number of branches committed
system.switch_cpus_10.commit.bw_lim_events      4087192                       # number cycles where commit BW limit reached
system.switch_cpus_10.commit.commitSquashedInsts     15519482                       # The number of squashed insts skipped by commit
system.switch_cpus_10.commit.committedInsts     50000002                       # Number of instructions committed
system.switch_cpus_10.commit.committedOps     90128685                       # Number of ops (including micro ops) committed
system.switch_cpus_10.commit.committed_per_cycle::samples     37553033                       # Number of insts commited each cycle
system.switch_cpus_10.commit.committed_per_cycle::mean     2.400037                       # Number of insts commited each cycle
system.switch_cpus_10.commit.committed_per_cycle::stdev     2.695134                       # Number of insts commited each cycle
system.switch_cpus_10.commit.committed_per_cycle::underflows            0      0.00%      0.00% # Number of insts commited each cycle
system.switch_cpus_10.commit.committed_per_cycle::0     13943964     37.13%     37.13% # Number of insts commited each cycle
system.switch_cpus_10.commit.committed_per_cycle::1      5407985     14.40%     51.53% # Number of insts commited each cycle
system.switch_cpus_10.commit.committed_per_cycle::2      2946268      7.85%     59.38% # Number of insts commited each cycle
system.switch_cpus_10.commit.committed_per_cycle::3      5325273     14.18%     73.56% # Number of insts commited each cycle
system.switch_cpus_10.commit.committed_per_cycle::4      2049789      5.46%     79.02% # Number of insts commited each cycle
system.switch_cpus_10.commit.committed_per_cycle::5      1727279      4.60%     83.62% # Number of insts commited each cycle
system.switch_cpus_10.commit.committed_per_cycle::6      1137723      3.03%     86.65% # Number of insts commited each cycle
system.switch_cpus_10.commit.committed_per_cycle::7       927560      2.47%     89.12% # Number of insts commited each cycle
system.switch_cpus_10.commit.committed_per_cycle::8      4087192     10.88%    100.00% # Number of insts commited each cycle
system.switch_cpus_10.commit.committed_per_cycle::overflows            0      0.00%    100.00% # Number of insts commited each cycle
system.switch_cpus_10.commit.committed_per_cycle::min_value            0                       # Number of insts commited each cycle
system.switch_cpus_10.commit.committed_per_cycle::max_value            8                       # Number of insts commited each cycle
system.switch_cpus_10.commit.committed_per_cycle::total     37553033                       # Number of insts commited each cycle
system.switch_cpus_10.commit.fp_insts        18590362                       # Number of committed floating point instructions.
system.switch_cpus_10.commit.function_calls      1386339                       # Number of function calls committed.
system.switch_cpus_10.commit.int_insts       79438093                       # Number of committed integer instructions.
system.switch_cpus_10.commit.loads           18367548                       # Number of loads committed
system.switch_cpus_10.commit.membars                0                       # Number of memory barriers committed
system.switch_cpus_10.commit.op_class_0::No_OpClass       478997      0.53%      0.53% # Class of committed instruction
system.switch_cpus_10.commit.op_class_0::IntAlu     53847751     59.75%     60.28% # Class of committed instruction
system.switch_cpus_10.commit.op_class_0::IntMult       208980      0.23%     60.51% # Class of committed instruction
system.switch_cpus_10.commit.op_class_0::IntDiv            0      0.00%     60.51% # Class of committed instruction
system.switch_cpus_10.commit.op_class_0::FloatAdd       191640      0.21%     60.72% # Class of committed instruction
system.switch_cpus_10.commit.op_class_0::FloatCmp            0      0.00%     60.72% # Class of committed instruction
system.switch_cpus_10.commit.op_class_0::FloatCvt            0      0.00%     60.72% # Class of committed instruction
system.switch_cpus_10.commit.op_class_0::FloatMult            0      0.00%     60.72% # Class of committed instruction
system.switch_cpus_10.commit.op_class_0::FloatMultAcc            0      0.00%     60.72% # Class of committed instruction
system.switch_cpus_10.commit.op_class_0::FloatDiv            0      0.00%     60.72% # Class of committed instruction
system.switch_cpus_10.commit.op_class_0::FloatMisc            0      0.00%     60.72% # Class of committed instruction
system.switch_cpus_10.commit.op_class_0::FloatSqrt            0      0.00%     60.72% # Class of committed instruction
system.switch_cpus_10.commit.op_class_0::SimdAdd            0      0.00%     60.72% # Class of committed instruction
system.switch_cpus_10.commit.op_class_0::SimdAddAcc            0      0.00%     60.72% # Class of committed instruction
system.switch_cpus_10.commit.op_class_0::SimdAlu       561666      0.62%     61.34% # Class of committed instruction
system.switch_cpus_10.commit.op_class_0::SimdCmp            0      0.00%     61.34% # Class of committed instruction
system.switch_cpus_10.commit.op_class_0::SimdCvt            0      0.00%     61.34% # Class of committed instruction
system.switch_cpus_10.commit.op_class_0::SimdMisc        15076      0.02%     61.36% # Class of committed instruction
system.switch_cpus_10.commit.op_class_0::SimdMult            0      0.00%     61.36% # Class of committed instruction
system.switch_cpus_10.commit.op_class_0::SimdMultAcc            0      0.00%     61.36% # Class of committed instruction
system.switch_cpus_10.commit.op_class_0::SimdShift            0      0.00%     61.36% # Class of committed instruction
system.switch_cpus_10.commit.op_class_0::SimdShiftAcc            0      0.00%     61.36% # Class of committed instruction
system.switch_cpus_10.commit.op_class_0::SimdDiv            0      0.00%     61.36% # Class of committed instruction
system.switch_cpus_10.commit.op_class_0::SimdSqrt            0      0.00%     61.36% # Class of committed instruction
system.switch_cpus_10.commit.op_class_0::SimdFloatAdd      3361591      3.73%     65.09% # Class of committed instruction
system.switch_cpus_10.commit.op_class_0::SimdFloatAlu            0      0.00%     65.09% # Class of committed instruction
system.switch_cpus_10.commit.op_class_0::SimdFloatCmp        11561      0.01%     65.10% # Class of committed instruction
system.switch_cpus_10.commit.op_class_0::SimdFloatCvt      1445174      1.60%     66.71% # Class of committed instruction
system.switch_cpus_10.commit.op_class_0::SimdFloatDiv       123067      0.14%     66.84% # Class of committed instruction
system.switch_cpus_10.commit.op_class_0::SimdFloatMisc            0      0.00%     66.84% # Class of committed instruction
system.switch_cpus_10.commit.op_class_0::SimdFloatMult      3307937      3.67%     70.51% # Class of committed instruction
system.switch_cpus_10.commit.op_class_0::SimdFloatMultAcc            0      0.00%     70.51% # Class of committed instruction
system.switch_cpus_10.commit.op_class_0::SimdFloatSqrt        11773      0.01%     70.53% # Class of committed instruction
system.switch_cpus_10.commit.op_class_0::SimdReduceAdd            0      0.00%     70.53% # Class of committed instruction
system.switch_cpus_10.commit.op_class_0::SimdReduceAlu            0      0.00%     70.53% # Class of committed instruction
system.switch_cpus_10.commit.op_class_0::SimdReduceCmp            0      0.00%     70.53% # Class of committed instruction
system.switch_cpus_10.commit.op_class_0::SimdFloatReduceAdd            0      0.00%     70.53% # Class of committed instruction
system.switch_cpus_10.commit.op_class_0::SimdFloatReduceCmp            0      0.00%     70.53% # Class of committed instruction
system.switch_cpus_10.commit.op_class_0::SimdAes            0      0.00%     70.53% # Class of committed instruction
system.switch_cpus_10.commit.op_class_0::SimdAesMix            0      0.00%     70.53% # Class of committed instruction
system.switch_cpus_10.commit.op_class_0::SimdSha1Hash            0      0.00%     70.53% # Class of committed instruction
system.switch_cpus_10.commit.op_class_0::SimdSha1Hash2            0      0.00%     70.53% # Class of committed instruction
system.switch_cpus_10.commit.op_class_0::SimdSha256Hash            0      0.00%     70.53% # Class of committed instruction
system.switch_cpus_10.commit.op_class_0::SimdSha256Hash2            0      0.00%     70.53% # Class of committed instruction
system.switch_cpus_10.commit.op_class_0::SimdShaSigma2            0      0.00%     70.53% # Class of committed instruction
system.switch_cpus_10.commit.op_class_0::SimdShaSigma3            0      0.00%     70.53% # Class of committed instruction
system.switch_cpus_10.commit.op_class_0::SimdPredAlu            0      0.00%     70.53% # Class of committed instruction
system.switch_cpus_10.commit.op_class_0::MemRead     11351671     12.59%     83.12% # Class of committed instruction
system.switch_cpus_10.commit.op_class_0::MemWrite      6846458      7.60%     90.72% # Class of committed instruction
system.switch_cpus_10.commit.op_class_0::FloatMemRead      7015877      7.78%     98.50% # Class of committed instruction
system.switch_cpus_10.commit.op_class_0::FloatMemWrite      1349466      1.50%    100.00% # Class of committed instruction
system.switch_cpus_10.commit.op_class_0::IprAccess            0      0.00%    100.00% # Class of committed instruction
system.switch_cpus_10.commit.op_class_0::InstPrefetch            0      0.00%    100.00% # Class of committed instruction
system.switch_cpus_10.commit.op_class_0::total     90128685                       # Class of committed instruction
system.switch_cpus_10.commit.refs            26563472                       # Number of memory references committed
system.switch_cpus_10.commit.swp_count              0                       # Number of s/w prefetches committed
system.switch_cpus_10.commit.vec_insts              0                       # Number of committed Vector instructions.
system.switch_cpus_10.committedInsts         50000002                       # Number of Instructions Simulated
system.switch_cpus_10.committedOps           90128685                       # Number of Ops (including micro ops) Simulated
system.switch_cpus_10.cpi                    0.798048                       # CPI: Cycles Per Instruction
system.switch_cpus_10.cpi_total              0.798048                       # CPI: Total CPI of All Threads
system.switch_cpus_10.decode.BlockedCycles      2255662                       # Number of cycles decode is blocked
system.switch_cpus_10.decode.DecodedInsts    113895786                       # Number of instructions handled by decode
system.switch_cpus_10.decode.IdleCycles      19013414                       # Number of cycles decode is idle
system.switch_cpus_10.decode.RunCycles       17808099                       # Number of cycles decode is running
system.switch_cpus_10.decode.SquashCycles       677602                       # Number of cycles decode is squashing
system.switch_cpus_10.decode.UnblockCycles       142447                       # Number of cycles decode is unblocking
system.switch_cpus_10.dtb.rdAccesses         20276823                       # TLB accesses on read requests
system.switch_cpus_10.dtb.rdMisses             115104                       # TLB misses on read requests
system.switch_cpus_10.dtb.wrAccesses          9127134                       # TLB accesses on write requests
system.switch_cpus_10.dtb.wrMisses              19076                       # TLB misses on write requests
system.switch_cpus_10.fetch.Branches         11531921                       # Number of branches that fetch encountered
system.switch_cpus_10.fetch.CacheLines        9370240                       # Number of cache lines fetched
system.switch_cpus_10.fetch.Cycles           19585676                       # Number of cycles fetch has run and was not squashing or blocked
system.switch_cpus_10.fetch.IcacheSquashes       304281                       # Number of outstanding Icache misses that were squashed
system.switch_cpus_10.fetch.IcacheWaitRetryStallCycles          896                       # Number of stall cycles due to full MSHR
system.switch_cpus_10.fetch.Insts            64727962                       # Number of instructions fetch has processed
system.switch_cpus_10.fetch.MiscStallCycles          574                       # Number of cycles fetch has spent waiting on interrupts, or bad addresses, or out of MSHRs
system.switch_cpus_10.fetch.PendingTrapStallCycles           29                       # Number of stall cycles due to pending traps
system.switch_cpus_10.fetch.SquashCycles      1355204                       # Number of cycles fetch has spent squashing
system.switch_cpus_10.fetch.branchRate       0.289003                       # Number of branch fetches per cycle
system.switch_cpus_10.fetch.icacheStallCycles     19632452                       # Number of cycles fetch is stalled on an Icache miss
system.switch_cpus_10.fetch.predictedBranches      5931876                       # Number of branches that fetch has predicted taken
system.switch_cpus_10.fetch.rate             1.622158                       # Number of inst fetches per cycle
system.switch_cpus_10.fetch.rateDist::samples     39897229                       # Number of instructions fetched each cycle (Total)
system.switch_cpus_10.fetch.rateDist::mean     2.934911                       # Number of instructions fetched each cycle (Total)
system.switch_cpus_10.fetch.rateDist::stdev     3.506374                       # Number of instructions fetched each cycle (Total)
system.switch_cpus_10.fetch.rateDist::underflows            0      0.00%      0.00% # Number of instructions fetched each cycle (Total)
system.switch_cpus_10.fetch.rateDist::0      21299180     53.39%     53.39% # Number of instructions fetched each cycle (Total)
system.switch_cpus_10.fetch.rateDist::1        756540      1.90%     55.28% # Number of instructions fetched each cycle (Total)
system.switch_cpus_10.fetch.rateDist::2       1233988      3.09%     58.37% # Number of instructions fetched each cycle (Total)
system.switch_cpus_10.fetch.rateDist::3        838682      2.10%     60.48% # Number of instructions fetched each cycle (Total)
system.switch_cpus_10.fetch.rateDist::4       2210358      5.54%     66.02% # Number of instructions fetched each cycle (Total)
system.switch_cpus_10.fetch.rateDist::5        640321      1.60%     67.62% # Number of instructions fetched each cycle (Total)
system.switch_cpus_10.fetch.rateDist::6       1660008      4.16%     71.78% # Number of instructions fetched each cycle (Total)
system.switch_cpus_10.fetch.rateDist::7        714049      1.79%     73.57% # Number of instructions fetched each cycle (Total)
system.switch_cpus_10.fetch.rateDist::8      10544103     26.43%    100.00% # Number of instructions fetched each cycle (Total)
system.switch_cpus_10.fetch.rateDist::overflows            0      0.00%    100.00% # Number of instructions fetched each cycle (Total)
system.switch_cpus_10.fetch.rateDist::min_value            0                       # Number of instructions fetched each cycle (Total)
system.switch_cpus_10.fetch.rateDist::max_value            8                       # Number of instructions fetched each cycle (Total)
system.switch_cpus_10.fetch.rateDist::total     39897229                       # Number of instructions fetched each cycle (Total)
system.switch_cpus_10.fp_regfile_reads       29294180                       # number of floating regfile reads
system.switch_cpus_10.fp_regfile_writes      16885937                       # number of floating regfile writes
system.switch_cpus_10.idleCycles                 5159                       # Total number of cycles that the CPU has spent unscheduled due to idling
system.switch_cpus_10.iew.branchMispredicts       784853                       # Number of branch mispredicts detected at execute
system.switch_cpus_10.iew.exec_branches       9372094                       # Number of branches executed
system.switch_cpus_10.iew.exec_nop                  0                       # number of nop insts executed
system.switch_cpus_10.iew.exec_rate          2.498281                       # Inst execution rate
system.switch_cpus_10.iew.exec_refs          29394884                       # number of memory reference insts executed
system.switch_cpus_10.iew.exec_stores         9127134                       # Number of stores executed
system.switch_cpus_10.iew.exec_swp                  0                       # number of swp insts executed
system.switch_cpus_10.iew.iewBlockCycles      1676592                       # Number of cycles IEW is blocking
system.switch_cpus_10.iew.iewDispLoadInsts     21316329                       # Number of dispatched load instructions
system.switch_cpus_10.iew.iewDispNonSpecInsts            0                       # Number of dispatched non-speculative instructions
system.switch_cpus_10.iew.iewDispSquashedInsts       550022                       # Number of squashed instructions skipped by dispatch
system.switch_cpus_10.iew.iewDispStoreInsts      9788060                       # Number of dispatched store instructions
system.switch_cpus_10.iew.iewDispatchedInsts    105644928                       # Number of instructions dispatched to IQ
system.switch_cpus_10.iew.iewExecLoadInsts     20267750                       # Number of load instructions executed
system.switch_cpus_10.iew.iewExecSquashedInsts      1346923                       # Number of squashed instructions skipped in execute
system.switch_cpus_10.iew.iewExecutedInsts     99687379                       # Number of executed instructions
system.switch_cpus_10.iew.iewIQFullEvents         3670                       # Number of times the IQ has become full, causing a stall
system.switch_cpus_10.iew.iewIdleCycles             0                       # Number of cycles IEW is idle
system.switch_cpus_10.iew.iewLSQFullEvents        12275                       # Number of times the LSQ has become full, causing a stall
system.switch_cpus_10.iew.iewSquashCycles       677602                       # Number of cycles IEW is squashing
system.switch_cpus_10.iew.iewUnblockCycles        17205                       # Number of cycles IEW is unblocking
system.switch_cpus_10.iew.lsq.thread0.blockedLoads            0                       # Number of blocked loads due to partial load-store forwarding
system.switch_cpus_10.iew.lsq.thread0.cacheBlocked         3023                       # Number of times an access to memory failed due to the cache being blocked
system.switch_cpus_10.iew.lsq.thread0.forwLoads      2880159                       # Number of loads that had data forwarded from stores
system.switch_cpus_10.iew.lsq.thread0.ignoredResponses        20977                       # Number of memory responses ignored because the instruction is squashed
system.switch_cpus_10.iew.lsq.thread0.invAddrLoads            0                       # Number of loads ignored due to an invalid address
system.switch_cpus_10.iew.lsq.thread0.invAddrSwpfs            0                       # Number of software prefetches ignored due to an invalid address
system.switch_cpus_10.iew.lsq.thread0.memOrderViolation         2224                       # Number of memory ordering violations
system.switch_cpus_10.iew.lsq.thread0.rescheduledLoads         7133                       # Number of loads that were rescheduled
system.switch_cpus_10.iew.lsq.thread0.squashedLoads      2948775                       # Number of loads squashed
system.switch_cpus_10.iew.lsq.thread0.squashedStores      1592135                       # Number of stores squashed
system.switch_cpus_10.iew.memOrderViolationEvents         2224                       # Number of memory order violations
system.switch_cpus_10.iew.predictedNotTakenIncorrect       616954                       # Number of branches that were predicted not taken incorrectly
system.switch_cpus_10.iew.predictedTakenIncorrect       167899                       # Number of branches that were predicted taken incorrectly
system.switch_cpus_10.iew.wb_consumers      110907363                       # num instructions consuming a value
system.switch_cpus_10.iew.wb_count           98682151                       # cumulative count of insts written-back
system.switch_cpus_10.iew.wb_fanout          0.611013                       # average fanout of values written-back
system.switch_cpus_10.iew.wb_producers       67765859                       # num instructions producing a value
system.switch_cpus_10.iew.wb_rate            2.473089                       # insts written-back per cycle
system.switch_cpus_10.iew.wb_sent            98864195                       # cumulative count of insts sent to commit
system.switch_cpus_10.int_regfile_reads     138021293                       # number of integer regfile reads
system.switch_cpus_10.int_regfile_writes     61994867                       # number of integer regfile writes
system.switch_cpus_10.ipc                    1.253058                       # IPC: Instructions Per Cycle
system.switch_cpus_10.ipc_total              1.253058                       # IPC: Total IPC of All Threads
system.switch_cpus_10.iq.FU_type_0::No_OpClass       624327      0.62%      0.62% # Type of FU issued
system.switch_cpus_10.iq.FU_type_0::IntAlu     60777502     60.16%     60.77% # Type of FU issued
system.switch_cpus_10.iq.FU_type_0::IntMult       214202      0.21%     60.99% # Type of FU issued
system.switch_cpus_10.iq.FU_type_0::IntDiv            0      0.00%     60.99% # Type of FU issued
system.switch_cpus_10.iq.FU_type_0::FloatAdd       305810      0.30%     61.29% # Type of FU issued
system.switch_cpus_10.iq.FU_type_0::FloatCmp            0      0.00%     61.29% # Type of FU issued
system.switch_cpus_10.iq.FU_type_0::FloatCvt            0      0.00%     61.29% # Type of FU issued
system.switch_cpus_10.iq.FU_type_0::FloatMult            0      0.00%     61.29% # Type of FU issued
system.switch_cpus_10.iq.FU_type_0::FloatMultAcc            0      0.00%     61.29% # Type of FU issued
system.switch_cpus_10.iq.FU_type_0::FloatDiv            0      0.00%     61.29% # Type of FU issued
system.switch_cpus_10.iq.FU_type_0::FloatMisc            0      0.00%     61.29% # Type of FU issued
system.switch_cpus_10.iq.FU_type_0::FloatSqrt            0      0.00%     61.29% # Type of FU issued
system.switch_cpus_10.iq.FU_type_0::SimdAdd            0      0.00%     61.29% # Type of FU issued
system.switch_cpus_10.iq.FU_type_0::SimdAddAcc            0      0.00%     61.29% # Type of FU issued
system.switch_cpus_10.iq.FU_type_0::SimdAlu       632911      0.63%     61.91% # Type of FU issued
system.switch_cpus_10.iq.FU_type_0::SimdCmp            0      0.00%     61.91% # Type of FU issued
system.switch_cpus_10.iq.FU_type_0::SimdCvt            0      0.00%     61.91% # Type of FU issued
system.switch_cpus_10.iq.FU_type_0::SimdMisc        18157      0.02%     61.93% # Type of FU issued
system.switch_cpus_10.iq.FU_type_0::SimdMult            0      0.00%     61.93% # Type of FU issued
system.switch_cpus_10.iq.FU_type_0::SimdMultAcc            0      0.00%     61.93% # Type of FU issued
system.switch_cpus_10.iq.FU_type_0::SimdShift            0      0.00%     61.93% # Type of FU issued
system.switch_cpus_10.iq.FU_type_0::SimdShiftAcc            0      0.00%     61.93% # Type of FU issued
system.switch_cpus_10.iq.FU_type_0::SimdDiv            0      0.00%     61.93% # Type of FU issued
system.switch_cpus_10.iq.FU_type_0::SimdSqrt            0      0.00%     61.93% # Type of FU issued
system.switch_cpus_10.iq.FU_type_0::SimdFloatAdd      3454656      3.42%     65.35% # Type of FU issued
system.switch_cpus_10.iq.FU_type_0::SimdFloatAlu            0      0.00%     65.35% # Type of FU issued
system.switch_cpus_10.iq.FU_type_0::SimdFloatCmp        11561      0.01%     65.36% # Type of FU issued
system.switch_cpus_10.iq.FU_type_0::SimdFloatCvt      1501731      1.49%     66.85% # Type of FU issued
system.switch_cpus_10.iq.FU_type_0::SimdFloatDiv       129222      0.13%     66.98% # Type of FU issued
system.switch_cpus_10.iq.FU_type_0::SimdFloatMisc            0      0.00%     66.98% # Type of FU issued
system.switch_cpus_10.iq.FU_type_0::SimdFloatMult      3459553      3.42%     70.40% # Type of FU issued
system.switch_cpus_10.iq.FU_type_0::SimdFloatMultAcc            0      0.00%     70.40% # Type of FU issued
system.switch_cpus_10.iq.FU_type_0::SimdFloatSqrt        13886      0.01%     70.42% # Type of FU issued
system.switch_cpus_10.iq.FU_type_0::SimdReduceAdd            0      0.00%     70.42% # Type of FU issued
system.switch_cpus_10.iq.FU_type_0::SimdReduceAlu            0      0.00%     70.42% # Type of FU issued
system.switch_cpus_10.iq.FU_type_0::SimdReduceCmp            0      0.00%     70.42% # Type of FU issued
system.switch_cpus_10.iq.FU_type_0::SimdFloatReduceAdd            0      0.00%     70.42% # Type of FU issued
system.switch_cpus_10.iq.FU_type_0::SimdFloatReduceCmp            0      0.00%     70.42% # Type of FU issued
system.switch_cpus_10.iq.FU_type_0::SimdAes            0      0.00%     70.42% # Type of FU issued
system.switch_cpus_10.iq.FU_type_0::SimdAesMix            0      0.00%     70.42% # Type of FU issued
system.switch_cpus_10.iq.FU_type_0::SimdSha1Hash            0      0.00%     70.42% # Type of FU issued
system.switch_cpus_10.iq.FU_type_0::SimdSha1Hash2            0      0.00%     70.42% # Type of FU issued
system.switch_cpus_10.iq.FU_type_0::SimdSha256Hash            0      0.00%     70.42% # Type of FU issued
system.switch_cpus_10.iq.FU_type_0::SimdSha256Hash2            0      0.00%     70.42% # Type of FU issued
system.switch_cpus_10.iq.FU_type_0::SimdShaSigma2            0      0.00%     70.42% # Type of FU issued
system.switch_cpus_10.iq.FU_type_0::SimdShaSigma3            0      0.00%     70.42% # Type of FU issued
system.switch_cpus_10.iq.FU_type_0::SimdPredAlu            0      0.00%     70.42% # Type of FU issued
system.switch_cpus_10.iq.FU_type_0::MemRead     12717983     12.59%     83.00% # Type of FU issued
system.switch_cpus_10.iq.FU_type_0::MemWrite      7861126      7.78%     90.78% # Type of FU issued
system.switch_cpus_10.iq.FU_type_0::FloatMemRead      7894580      7.81%     98.60% # Type of FU issued
system.switch_cpus_10.iq.FU_type_0::FloatMemWrite      1417095      1.40%    100.00% # Type of FU issued
system.switch_cpus_10.iq.FU_type_0::IprAccess            0      0.00%    100.00% # Type of FU issued
system.switch_cpus_10.iq.FU_type_0::InstPrefetch            0      0.00%    100.00% # Type of FU issued
system.switch_cpus_10.iq.FU_type_0::total    101034302                       # Type of FU issued
system.switch_cpus_10.iq.fp_alu_accesses     20745540                       # Number of floating point alu accesses
system.switch_cpus_10.iq.fp_inst_queue_reads     40821766                       # Number of floating instruction queue reads
system.switch_cpus_10.iq.fp_inst_queue_wakeup_accesses     19496053                       # Number of floating instruction queue wakeup accesses
system.switch_cpus_10.iq.fp_inst_queue_writes     23163135                       # Number of floating instruction queue writes
system.switch_cpus_10.iq.fu_busy_cnt          1137658                       # FU busy when requested
system.switch_cpus_10.iq.fu_busy_rate        0.011260                       # FU busy rate (busy events/executed inst)
system.switch_cpus_10.iq.fu_full::No_OpClass            0      0.00%      0.00% # attempts to use FU when none available
system.switch_cpus_10.iq.fu_full::IntAlu       183360     16.12%     16.12% # attempts to use FU when none available
system.switch_cpus_10.iq.fu_full::IntMult            0      0.00%     16.12% # attempts to use FU when none available
system.switch_cpus_10.iq.fu_full::IntDiv            0      0.00%     16.12% # attempts to use FU when none available
system.switch_cpus_10.iq.fu_full::FloatAdd         2787      0.24%     16.36% # attempts to use FU when none available
system.switch_cpus_10.iq.fu_full::FloatCmp            0      0.00%     16.36% # attempts to use FU when none available
system.switch_cpus_10.iq.fu_full::FloatCvt            0      0.00%     16.36% # attempts to use FU when none available
system.switch_cpus_10.iq.fu_full::FloatMult            0      0.00%     16.36% # attempts to use FU when none available
system.switch_cpus_10.iq.fu_full::FloatMultAcc            0      0.00%     16.36% # attempts to use FU when none available
system.switch_cpus_10.iq.fu_full::FloatDiv            0      0.00%     16.36% # attempts to use FU when none available
system.switch_cpus_10.iq.fu_full::FloatMisc            0      0.00%     16.36% # attempts to use FU when none available
system.switch_cpus_10.iq.fu_full::FloatSqrt            0      0.00%     16.36% # attempts to use FU when none available
system.switch_cpus_10.iq.fu_full::SimdAdd            0      0.00%     16.36% # attempts to use FU when none available
system.switch_cpus_10.iq.fu_full::SimdAddAcc            0      0.00%     16.36% # attempts to use FU when none available
system.switch_cpus_10.iq.fu_full::SimdAlu         3812      0.34%     16.70% # attempts to use FU when none available
system.switch_cpus_10.iq.fu_full::SimdCmp            0      0.00%     16.70% # attempts to use FU when none available
system.switch_cpus_10.iq.fu_full::SimdCvt            0      0.00%     16.70% # attempts to use FU when none available
system.switch_cpus_10.iq.fu_full::SimdMisc            0      0.00%     16.70% # attempts to use FU when none available
system.switch_cpus_10.iq.fu_full::SimdMult            0      0.00%     16.70% # attempts to use FU when none available
system.switch_cpus_10.iq.fu_full::SimdMultAcc            0      0.00%     16.70% # attempts to use FU when none available
system.switch_cpus_10.iq.fu_full::SimdShift            0      0.00%     16.70% # attempts to use FU when none available
system.switch_cpus_10.iq.fu_full::SimdShiftAcc            0      0.00%     16.70% # attempts to use FU when none available
system.switch_cpus_10.iq.fu_full::SimdDiv            0      0.00%     16.70% # attempts to use FU when none available
system.switch_cpus_10.iq.fu_full::SimdSqrt            0      0.00%     16.70% # attempts to use FU when none available
system.switch_cpus_10.iq.fu_full::SimdFloatAdd        59901      5.27%     21.96% # attempts to use FU when none available
system.switch_cpus_10.iq.fu_full::SimdFloatAlu            0      0.00%     21.96% # attempts to use FU when none available
system.switch_cpus_10.iq.fu_full::SimdFloatCmp            0      0.00%     21.96% # attempts to use FU when none available
system.switch_cpus_10.iq.fu_full::SimdFloatCvt         8226      0.72%     22.69% # attempts to use FU when none available
system.switch_cpus_10.iq.fu_full::SimdFloatDiv            0      0.00%     22.69% # attempts to use FU when none available
system.switch_cpus_10.iq.fu_full::SimdFloatMisc            0      0.00%     22.69% # attempts to use FU when none available
system.switch_cpus_10.iq.fu_full::SimdFloatMult        28779      2.53%     25.22% # attempts to use FU when none available
system.switch_cpus_10.iq.fu_full::SimdFloatMultAcc            0      0.00%     25.22% # attempts to use FU when none available
[...]
system.cpu1.l2cache.ReadSharedReq_avg_miss_latency::total 121367.753495                       # average ReadSharedReq miss latency
system.cpu1.l2cache.ReadSharedReq_mshr_misses::.switch_cpus1.data         1210                       # number of ReadSharedReq MSHR misses
system.cpu1.l2cache.ReadSharedReq_mshr_misses::.switch_cpus_11.data        19747                       # number of ReadSharedReq MSHR misses
system.cpu1.l2cache.ReadSharedReq_mshr_misses::total        20957                       # number of ReadSharedReq MSHR misses
system.cpu1.l2cache.ReadSharedReq_mshr_miss_latency::.switch_cpus1.data    149052480                       # number of ReadSharedReq MSHR miss cycles
system.cpu1.l2cache.ReadSharedReq_mshr_miss_latency::.switch_cpus_11.data   2385712461                       # number of ReadSharedReq MSHR miss cycles
system.cpu1.l2cache.ReadSharedReq_mshr_miss_latency::total   2534764941                       # number of ReadSharedReq MSHR miss cycles
system.cpu1.l2cache.ReadSharedReq_mshr_miss_rate::.switch_cpus1.data     0.932922                       # mshr miss rate for ReadSharedReq accesses
system.cpu1.l2cache.ReadSharedReq_mshr_miss_rate::.switch_cpus_11.data     0.527882                       # mshr miss rate for ReadSharedReq accesses
system.cpu1.l2cache.ReadSharedReq_mshr_miss_rate::total     0.541455                       # mshr miss rate for ReadSharedReq accesses
system.cpu1.l2cache.ReadSharedReq_avg_mshr_miss_latency::.switch_cpus1.data 123183.867769                       # average ReadSharedReq mshr miss latency
system.cpu1.l2cache.ReadSharedReq_avg_mshr_miss_latency::.switch_cpus_11.data 120813.919127                       # average ReadSharedReq mshr miss latency
system.cpu1.l2cache.ReadSharedReq_avg_mshr_miss_latency::total 120950.753495                       # average ReadSharedReq mshr miss latency
system.cpu1.l2cache.tags.pwrStateResidencyTicks::UNDEFINED 1312387845186                       # Cumulative time (in ticks) in various power states
system.cpu1.l2cache.tags.tagsinuse          51.388068                       # Cycle average of tags in use
system.cpu1.l2cache.tags.total_refs             77359                       # Total number of references to valid blocks.
system.cpu1.l2cache.tags.sampled_refs           21266                       # Sample count of references to valid blocks.
system.cpu1.l2cache.tags.avg_refs            3.637685                       # Average number of references to valid blocks.
system.cpu1.l2cache.tags.warmup_cycle    1293351708033                       # Cycle when the warmup percentage was hit.
system.cpu1.l2cache.tags.occ_blocks::.cpu1.inst     0.003797                       # Average occupied blocks per requestor
system.cpu1.l2cache.tags.occ_blocks::.cpu1.data     0.014505                       # Average occupied blocks per requestor
system.cpu1.l2cache.tags.occ_blocks::.switch_cpus1.inst     0.707280                       # Average occupied blocks per requestor
system.cpu1.l2cache.tags.occ_blocks::.switch_cpus1.data     8.623187                       # Average occupied blocks per requestor
system.cpu1.l2cache.tags.occ_blocks::.switch_cpus_11.inst     0.188071                       # Average occupied blocks per requestor
system.cpu1.l2cache.tags.occ_blocks::.switch_cpus_11.data    41.851229                       # Average occupied blocks per requestor
system.cpu1.l2cache.tags.occ_percent::.cpu1.inst     0.000001                       # Average percentage of cache occupancy
system.cpu1.l2cache.tags.occ_percent::.cpu1.data     0.000004                       # Average percentage of cache occupancy
system.cpu1.l2cache.tags.occ_percent::.switch_cpus1.inst     0.000173                       # Average percentage of cache occupancy
system.cpu1.l2cache.tags.occ_percent::.switch_cpus1.data     0.002105                       # Average percentage of cache occupancy
system.cpu1.l2cache.tags.occ_percent::.switch_cpus_11.inst     0.000046                       # Average percentage of cache occupancy
system.cpu1.l2cache.tags.occ_percent::.switch_cpus_11.data     0.010218                       # Average percentage of cache occupancy
system.cpu1.l2cache.tags.occ_percent::total     0.012546                       # Average percentage of cache occupancy
system.cpu1.l2cache.tags.occ_task_id_blocks::1024         4096                       # Occupied blocks per task id
system.cpu1.l2cache.tags.age_task_id_blocks_1024::0            4                       # Occupied blocks per task id
system.cpu1.l2cache.tags.age_task_id_blocks_1024::1          133                       # Occupied blocks per task id
system.cpu1.l2cache.tags.age_task_id_blocks_1024::2         1280                       # Occupied blocks per task id
system.cpu1.l2cache.tags.age_task_id_blocks_1024::3         2171                       # Occupied blocks per task id
system.cpu1.l2cache.tags.age_task_id_blocks_1024::4          508                       # Occupied blocks per task id
system.cpu1.l2cache.tags.occ_task_id_percent::1024            1                       # Percentage of cache occupancy per task id
system.cpu1.l2cache.tags.tag_accesses         1259058                       # Number of tag accesses
system.cpu1.l2cache.tags.data_accesses        1259058                       # Number of data accesses
system.cpu1.toL2Bus.pwrStateResidencyTicks::UNDEFINED 1312387845186                       # Cumulative time (in ticks) in various power states
system.cpu1.toL2Bus.trans_dist::ReadResp        38990                       # Transaction distribution
system.cpu1.toL2Bus.trans_dist::WritebackDirty          128                       # Transaction distribution
system.cpu1.toL2Bus.trans_dist::CleanEvict        55341                       # Transaction distribution
system.cpu1.toL2Bus.trans_dist::ReadExReq          106                       # Transaction distribution
system.cpu1.toL2Bus.trans_dist::ReadExResp          106                       # Transaction distribution
system.cpu1.toL2Bus.trans_dist::ReadCleanReq          285                       # Transaction distribution
system.cpu1.toL2Bus.trans_dist::ReadSharedReq        38705                       # Transaction distribution
system.cpu1.toL2Bus.pkt_count_system.cpu1.icache.mem_side::system.cpu1.l2cache.cpu_side          570                       # Packet count per connected master and slave (bytes)
system.cpu1.toL2Bus.pkt_count_system.cpu1.dcache.mem_side::system.cpu1.l2cache.cpu_side       115921                       # Packet count per connected master and slave (bytes)
system.cpu1.toL2Bus.pkt_count::total           116491                       # Packet count per connected master and slave (bytes)
system.cpu1.toL2Bus.pkt_size_system.cpu1.icache.mem_side::system.cpu1.l2cache.cpu_side        18240                       # Cumulative packet size per connected master and slave (bytes)
system.cpu1.toL2Bus.pkt_size_system.cpu1.dcache.mem_side::system.cpu1.l2cache.cpu_side      2491648                       # Cumulative packet size per connected master and slave (bytes)
system.cpu1.toL2Bus.pkt_size::total           2509888                       # Cumulative packet size per connected master and slave (bytes)
system.cpu1.toL2Bus.snoops                      17170                       # Total snoops (count)
system.cpu1.toL2Bus.snoopTraffic                  448                       # Total snoop traffic (bytes)
system.cpu1.toL2Bus.snoop_fanout::samples        56266                       # Request fanout histogram
system.cpu1.toL2Bus.snoop_fanout::mean       0.006451                       # Request fanout histogram
system.cpu1.toL2Bus.snoop_fanout::stdev      0.080062                       # Request fanout histogram
system.cpu1.toL2Bus.snoop_fanout::underflows            0      0.00%      0.00% # Request fanout histogram
system.cpu1.toL2Bus.snoop_fanout::0             55903     99.35%     99.35% # Request fanout histogram
system.cpu1.toL2Bus.snoop_fanout::1               363      0.65%    100.00% # Request fanout histogram
system.cpu1.toL2Bus.snoop_fanout::2                 0      0.00%    100.00% # Request fanout histogram
system.cpu1.toL2Bus.snoop_fanout::3                 0      0.00%    100.00% # Request fanout histogram
system.cpu1.toL2Bus.snoop_fanout::4                 0      0.00%    100.00% # Request fanout histogram
system.cpu1.toL2Bus.snoop_fanout::overflows            0      0.00%    100.00% # Request fanout histogram
system.cpu1.toL2Bus.snoop_fanout::min_value            0                       # Request fanout histogram
system.cpu1.toL2Bus.snoop_fanout::max_value            1                       # Request fanout histogram
system.cpu1.toL2Bus.snoop_fanout::total         56266                       # Request fanout histogram
system.cpu1.toL2Bus.reqLayer0.occupancy      32373795                       # Layer occupancy (ticks)
system.cpu1.toL2Bus.reqLayer0.utilization          0.2                       # Layer utilization (%)
system.cpu1.toL2Bus.respLayer1.occupancy     48551310                       # Layer occupancy (ticks)
system.cpu1.toL2Bus.respLayer1.utilization          0.3                       # Layer utilization (%)
system.cpu1.toL2Bus.respLayer0.occupancy       355284                       # Layer occupancy (ticks)
system.cpu1.toL2Bus.respLayer0.utilization          0.0                       # Layer utilization (%)
system.switch_cpus_10.pwrStateResidencyTicks::OFF  19036137570                       # Cumulative time (in ticks) in various power states
system.switch_cpus_10.dtb.walker.pwrStateResidencyTicks::UNDEFINED 1312387845186                       # Cumulative time (in ticks) in various power states
system.switch_cpus_10.itb.walker.pwrStateResidencyTicks::UNDEFINED 1312387845186                       # Cumulative time (in ticks) in various power states
system.switch_cpus_11.pwrStateResidencyTicks::OFF  19036137570                       # Cumulative time (in ticks) in various power states
system.switch_cpus_11.dtb.walker.pwrStateResidencyTicks::UNDEFINED 1312387845186                       # Cumulative time (in ticks) in various power states
system.switch_cpus_11.itb.walker.pwrStateResidencyTicks::UNDEFINED 1312387845186                       # Cumulative time (in ticks) in various power states
system.cpu_voltage_domain.voltage                   1                       # Voltage in Volts
system.switch_cpus1.numPwrStateTransitions            1                       # Number of power state transitions
system.switch_cpus1.pwrStateResidencyTicks::UNDEFINED 1293351707616                       # Cumulative time (in ticks) in various power states
system.switch_cpus1.pwrStateResidencyTicks::OFF  19036137570                       # Cumulative time (in ticks) in various power states
system.switch_cpus1.dtb.walker.pwrStateResidencyTicks::UNDEFINED 1312387845186                       # Cumulative time (in ticks) in various power states
system.switch_cpus1.itb.walker.pwrStateResidencyTicks::UNDEFINED 1312387845186                       # Cumulative time (in ticks) in various power states
system.mem_ctrls.pwrStateResidencyTicks::UNDEFINED 1312387845186                       # Cumulative time (in ticks) in various power states
system.mem_ctrls.bytes_read::.cpu0.inst            64                       # Number of bytes read from this memory
system.mem_ctrls.bytes_read::.cpu0.data            64                       # Number of bytes read from this memory
system.mem_ctrls.bytes_read::.cpu1.inst            64                       # Number of bytes read from this memory
system.mem_ctrls.bytes_read::.cpu1.data            64                       # Number of bytes read from this memory
system.mem_ctrls.bytes_read::.switch_cpus0.inst        22336                       # Number of bytes read from this memory
system.mem_ctrls.bytes_read::.switch_cpus0.data        34624                       # Number of bytes read from this memory
system.mem_ctrls.bytes_read::.switch_cpus1.inst        12672                       # Number of bytes read from this memory
system.mem_ctrls.bytes_read::.switch_cpus1.data        78784                       # Number of bytes read from this memory
system.mem_ctrls.bytes_read::.switch_cpus_10.inst        12864                       # Number of bytes read from this memory
system.mem_ctrls.bytes_read::.switch_cpus_10.data        10432                       # Number of bytes read from this memory
system.mem_ctrls.bytes_read::.switch_cpus_11.inst         5504                       # Number of bytes read from this memory
system.mem_ctrls.bytes_read::.switch_cpus_11.data      1263296                       # Number of bytes read from this memory
system.mem_ctrls.bytes_read::total            1440768                       # Number of bytes read from this memory
system.mem_ctrls.bytes_inst_read::.cpu0.inst           64                       # Number of instructions bytes read from this memory
system.mem_ctrls.bytes_inst_read::.cpu1.inst           64                       # Number of instructions bytes read from this memory
system.mem_ctrls.bytes_inst_read::.switch_cpus0.inst        22336                       # Number of instructions bytes read from this memory
system.mem_ctrls.bytes_inst_read::.switch_cpus1.inst        12672                       # Number of instructions bytes read from this memory
system.mem_ctrls.bytes_inst_read::.switch_cpus_10.inst        12864                       # Number of instructions bytes read from this memory
system.mem_ctrls.bytes_inst_read::.switch_cpus_11.inst         5504                       # Number of instructions bytes read from this memory
system.mem_ctrls.bytes_inst_read::total         53504                       # Number of instructions bytes read from this memory
system.mem_ctrls.num_reads::.cpu0.inst              1                       # Number of read requests responded to by this memory
system.mem_ctrls.num_reads::.cpu0.data              1                       # Number of read requests responded to by this memory
system.mem_ctrls.num_reads::.cpu1.inst              1                       # Number of read requests responded to by this memory
system.mem_ctrls.num_reads::.cpu1.data              1                       # Number of read requests responded to by this memory
system.mem_ctrls.num_reads::.switch_cpus0.inst          349                       # Number of read requests responded to by this memory
system.mem_ctrls.num_reads::.switch_cpus0.data          541                       # Number of read requests responded to by this memory
system.mem_ctrls.num_reads::.switch_cpus1.inst          198                       # Number of read requests responded to by this memory
system.mem_ctrls.num_reads::.switch_cpus1.data         1231                       # Number of read requests responded to by this memory
system.mem_ctrls.num_reads::.switch_cpus_10.inst          201                       # Number of read requests responded to by this memory
system.mem_ctrls.num_reads::.switch_cpus_10.data          163                       # Number of read requests responded to by this memory
system.mem_ctrls.num_reads::.switch_cpus_11.inst           86                       # Number of read requests responded to by this memory
system.mem_ctrls.num_reads::.switch_cpus_11.data        19739                       # Number of read requests responded to by this memory
system.mem_ctrls.num_reads::total               22512                       # Number of read requests responded to by this memory
system.mem_ctrls.bw_read::.cpu0.inst             3362                       # Total read bandwidth from this memory (bytes/s)
system.mem_ctrls.bw_read::.cpu0.data             3362                       # Total read bandwidth from this memory (bytes/s)
system.mem_ctrls.bw_read::.cpu1.inst             3362                       # Total read bandwidth from this memory (bytes/s)
system.mem_ctrls.bw_read::.cpu1.data             3362                       # Total read bandwidth from this memory (bytes/s)
system.mem_ctrls.bw_read::.switch_cpus0.inst      1173347                       # Total read bandwidth from this memory (bytes/s)
system.mem_ctrls.bw_read::.switch_cpus0.data      1818856                       # Total read bandwidth from this memory (bytes/s)
system.mem_ctrls.bw_read::.switch_cpus1.inst       665681                       # Total read bandwidth from this memory (bytes/s)
system.mem_ctrls.bw_read::.switch_cpus1.data      4138655                       # Total read bandwidth from this memory (bytes/s)
system.mem_ctrls.bw_read::.switch_cpus_10.inst       675767                       # Total read bandwidth from this memory (bytes/s)
system.mem_ctrls.bw_read::.switch_cpus_10.data       548010                       # Total read bandwidth from this memory (bytes/s)
system.mem_ctrls.bw_read::.switch_cpus_11.inst       289134                       # Total read bandwidth from this memory (bytes/s)
system.mem_ctrls.bw_read::.switch_cpus_11.data     66363042                       # Total read bandwidth from this memory (bytes/s)
system.mem_ctrls.bw_read::total              75685942                       # Total read bandwidth from this memory (bytes/s)
system.mem_ctrls.bw_inst_read::.cpu0.inst         3362                       # Instruction read bandwidth from this memory (bytes/s)
system.mem_ctrls.bw_inst_read::.cpu1.inst         3362                       # Instruction read bandwidth from this memory (bytes/s)
system.mem_ctrls.bw_inst_read::.switch_cpus0.inst      1173347                       # Instruction read bandwidth from this memory (bytes/s)
system.mem_ctrls.bw_inst_read::.switch_cpus1.inst       665681                       # Instruction read bandwidth from this memory (bytes/s)
system.mem_ctrls.bw_inst_read::.switch_cpus_10.inst       675767                       # Instruction read bandwidth from this memory (bytes/s)
system.mem_ctrls.bw_inst_read::.switch_cpus_11.inst       289134                       # Instruction read bandwidth from this memory (bytes/s)
system.mem_ctrls.bw_inst_read::total          2810654                       # Instruction read bandwidth from this memory (bytes/s)
system.mem_ctrls.bw_total::.cpu0.inst            3362                       # Total bandwidth to/from this memory (bytes/s)
system.mem_ctrls.bw_total::.cpu0.data            3362                       # Total bandwidth to/from this memory (bytes/s)
system.mem_ctrls.bw_total::.cpu1.inst            3362                       # Total bandwidth to/from this memory (bytes/s)
system.mem_ctrls.bw_total::.cpu1.data            3362                       # Total bandwidth to/from this memory (bytes/s)
system.mem_ctrls.bw_total::.switch_cpus0.inst      1173347                       # Total bandwidth to/from this memory (bytes/s)
system.mem_ctrls.bw_total::.switch_cpus0.data      1818856                       # Total bandwidth to/from this memory (bytes/s)
system.mem_ctrls.bw_total::.switch_cpus1.inst       665681                       # Total bandwidth to/from this memory (bytes/s)
system.mem_ctrls.bw_total::.switch_cpus1.data      4138655                       # Total bandwidth to/from this memory (bytes/s)
system.mem_ctrls.bw_total::.switch_cpus_10.inst       675767                       # Total bandwidth to/from this memory (bytes/s)
system.mem_ctrls.bw_total::.switch_cpus_10.data       548010                       # Total bandwidth to/from this memory (bytes/s)
system.mem_ctrls.bw_total::.switch_cpus_11.inst       289134                       # Total bandwidth to/from this memory (bytes/s)
system.mem_ctrls.bw_total::.switch_cpus_11.data     66363042                       # Total bandwidth to/from this memory (bytes/s)
system.mem_ctrls.bw_total::total             75685942                       # Total bandwidth to/from this memory (bytes/s)
system.cpu_clk_domain.clock                       417                       # Clock period in ticks

---------- End Simulation Statistics   ----------
