
---------- Begin Simulation Statistics ----------
final_tick                               1321363889865                       # Number of ticks from beginning of simulation (restored from checkpoints and never reset)
host_inst_rate                                 123192                       # Simulator instruction rate (inst/s)
host_mem_usage                                4575284                       # Number of bytes of host memory used
host_op_rate                                   249231                       # Simulator op (including micro ops) rate (op/s)
host_seconds                                   422.58                       # Real time elapsed on the host
host_tick_rate                               66287754                       # Simulator tick rate (ticks/s)
sim_freq                                 1000000000000                       # Frequency of simulated ticks
sim_insts                                    52059066                       # Number of instructions simulated
sim_ops                                     105321094                       # Number of ops (including micro ops) simulated
sim_seconds                                  0.028012                       # Number of seconds simulated
sim_ticks                                 28012182249                       # Number of ticks simulated
system.cpu0.committedInsts                          2                       # Number of instructions committed
system.cpu0.committedOps                            3                       # Number of ops (including micro ops) committed
system.cpu0.dcache.prefetcher.num_hwpf_issued           61                       # number of hwpf issued
system.cpu0.dcache.prefetcher.pfBufferHit           78                       # number of redundant prefetches already in prefetch queue
system.cpu0.dcache.prefetcher.pfIdentified          167                       # number of prefetch candidates identified
system.cpu0.dcache.prefetcher.pfInCache             0                       # number of redundant prefetches already in cache/mshr dropped
system.cpu0.dcache.prefetcher.pfRemovedFull            0                       # number of prefetches dropped due to prefetch queue size
system.cpu0.dcache.prefetcher.pfSpanPage            5                       # number of prefetches that crossed the page
system.cpu0.dtb.rdAccesses                          0                       # TLB accesses on read requests
system.cpu0.dtb.rdMisses                            0                       # TLB misses on read requests
system.cpu0.dtb.wrAccesses                          1                       # TLB accesses on write requests
system.cpu0.dtb.wrMisses                            0                       # TLB misses on write requests
system.cpu0.idle_fraction                           0                       # Percentage of idle cycles
system.cpu0.itb.rdAccesses                          0                       # TLB accesses on read requests
system.cpu0.itb.rdMisses                            0                       # TLB misses on read requests
system.cpu0.itb.wrAccesses                          2                       # TLB accesses on write requests
system.cpu0.itb.wrMisses                            0                       # TLB misses on write requests
system.cpu0.not_idle_fraction                       1                       # Percentage of non-idle cycles
system.cpu0.numCycles                               3                       # number of cpu cycles simulated
system.cpu0.numWorkItemsCompleted                   0                       # number of work items this cpu completed
system.cpu0.numWorkItemsStarted                     0                       # number of work items this cpu started
system.cpu0.num_busy_cycles                         3                       # Number of busy cycles
system.cpu0.num_cc_register_reads                   1                       # number of times the CC registers were read
system.cpu0.num_cc_register_writes                  2                       # number of times the CC registers were written
system.cpu0.num_conditional_control_insts            0                       # number of instructions that are conditional controls
system.cpu0.num_fp_alu_accesses                     0                       # Number of float alu accesses
system.cpu0.num_fp_insts                            0                       # number of float instructions
system.cpu0.num_fp_register_reads                   0                       # number of times the floating registers were read
system.cpu0.num_fp_register_writes                  0                       # number of times the floating registers were written
system.cpu0.num_func_calls                          0                       # number of times a function call or return occured
system.cpu0.num_idle_cycles                         0                       # Number of idle cycles
system.cpu0.num_int_alu_accesses                    3                       # Number of integer alu accesses
system.cpu0.num_int_insts                           3                       # number of integer instructions
system.cpu0.num_int_register_reads                  7                       # number of times the integer registers were read
system.cpu0.num_int_register_writes                 2                       # number of times the integer registers were written
system.cpu0.num_load_insts                          0                       # Number of load instructions
system.cpu0.num_mem_refs                            1                       # number of memory refs
system.cpu0.num_store_insts                         1                       # Number of store instructions
system.cpu0.num_vec_alu_accesses                    0                       # Number of vector alu accesses
system.cpu0.num_vec_insts                           0                       # number of vector instructions
system.cpu0.num_vec_register_reads                  0                       # number of times the vector registers were read
system.cpu0.num_vec_register_writes                 0                       # number of times the vector registers were written
system.cpu0.op_class::No_OpClass                    0      0.00%      0.00% # Class of executed instruction
system.cpu0.op_class::IntAlu                        2     66.67%     66.67% # Class of executed instruction
system.cpu0.op_class::IntMult                       0      0.00%     66.67% # Class of executed instruction
system.cpu0.op_class::IntDiv                        0      0.00%     66.67% # Class of executed instruction
system.cpu0.op_class::FloatAdd                      0      0.00%     66.67% # Class of executed instruction
system.cpu0.op_class::FloatCmp                      0      0.00%     66.67% # Class of executed instruction
system.cpu0.op_class::FloatCvt                      0      0.00%     66.67% # Class of executed instruction
system.cpu0.op_class::FloatMult                     0      0.00%     66.67% # Class of executed instruction
system.cpu0.op_class::FloatMultAcc                  0      0.00%     66.67% # Class of executed instruction
system.cpu0.op_class::FloatDiv                      0      0.00%     66.67% # Class of executed instruction
system.cpu0.op_class::FloatMisc                     0      0.00%     66.67% # Class of executed instruction
system.cpu0.op_class::FloatSqrt                     0      0.00%     66.67% # Class of executed instruction
system.cpu0.op_class::SimdAdd                       0      0.00%     66.67% # Class of executed instruction
system.cpu0.op_class::SimdAddAcc                    0      0.00%     66.67% # Class of executed instruction
system.cpu0.op_class::SimdAlu                       0      0.00%     66.67% # Class of executed instruction
system.cpu0.op_class::SimdCmp                       0      0.00%     66.67% # Class of executed instruction
system.cpu0.op_class::SimdCvt                       0      0.00%     66.67% # Class of executed instruction
system.cpu0.op_class::SimdMisc                      0      0.00%     66.67% # Class of executed instruction
system.cpu0.op_class::SimdMult                      0      0.00%     66.67% # Class of executed instruction
system.cpu0.op_class::SimdMultAcc                   0      0.00%     66.67% # Class of executed instruction
system.cpu0.op_class::SimdShift                     0      0.00%     66.67% # Class of executed instruction
system.cpu0.op_class::SimdShiftAcc                  0      0.00%     66.67% # Class of executed instruction
system.cpu0.op_class::SimdDiv                       0      0.00%     66.67% # Class of executed instruction
system.cpu0.op_class::SimdSqrt                      0      0.00%     66.67% # Class of executed instruction
system.cpu0.op_class::SimdFloatAdd                  0      0.00%     66.67% # Class of executed instruction
system.cpu0.op_class::SimdFloatAlu                  0      0.00%     66.67% # Class of executed instruction
system.cpu0.op_class::SimdFloatCmp                  0      0.00%     66.67% # Class of executed instruction
system.cpu0.op_class::SimdFloatCvt                  0      0.00%     66.67% # Class of executed instruction
system.cpu0.op_class::SimdFloatDiv                  0      0.00%     66.67% # Class of executed instruction
system.cpu0.op_class::SimdFloatMisc                 0      0.00%     66.67% # Class of executed instruction
system.cpu0.op_class::SimdFloatMult                 0      0.00%     66.67% # Class of executed instruction
system.cpu0.op_class::SimdFloatMultAcc              0      0.00%     66.67% # Class of executed instruction
system.cpu0.op_class::SimdFloatSqrt                 0      0.00%     66.67% # Class of executed instruction
system.cpu0.op_class::SimdReduceAdd                 0      0.00%     66.67% # Class of executed instruction
system.cpu0.op_class::SimdReduceAlu                 0      0.00%     66.67% # Class of executed instruction
system.cpu0.op_class::SimdReduceCmp                 0      0.00%     66.67% # Class of executed instruction
system.cpu0.op_class::SimdFloatReduceAdd            0      0.00%     66.67% # Class of executed instruction
system.cpu0.op_class::SimdFloatReduceCmp            0      0.00%     66.67% # Class of executed instruction
system.cpu0.op_class::SimdAes                       0      0.00%     66.67% # Class of executed instruction
system.cpu0.op_class::SimdAesMix                    0      0.00%     66.67% # Class of executed instruction
system.cpu0.op_class::SimdSha1Hash                  0      0.00%     66.67% # Class of executed instruction
system.cpu0.op_class::SimdSha1Hash2                 0      0.00%     66.67% # Class of executed instruction
system.cpu0.op_class::SimdSha256Hash                0      0.00%     66.67% # Class of executed instruction
system.cpu0.op_class::SimdSha256Hash2               0      0.00%     66.67% # Class of executed instruction
system.cpu0.op_class::SimdShaSigma2                 0      0.00%     66.67% # Class of executed instruction
system.cpu0.op_class::SimdShaSigma3                 0      0.00%     66.67% # Class of executed instruction
system.cpu0.op_class::SimdPredAlu                   0      0.00%     66.67% # Class of executed instruction
system.cpu0.op_class::MemRead                       0      0.00%     66.67% # Class of executed instruction
system.cpu0.op_class::MemWrite                      1     33.33%    100.00% # Class of executed instruction
system.cpu0.op_class::FloatMemRead                  0      0.00%    100.00% # Class of executed instruction
system.cpu0.op_class::FloatMemWrite                 0      0.00%    100.00% # Class of executed instruction
system.cpu0.op_class::IprAccess                     0      0.00%    100.00% # Class of executed instruction
system.cpu0.op_class::InstPrefetch                  0      0.00%    100.00% # Class of executed instruction
system.cpu0.op_class::total                         3                       # Class of executed instruction
system.cpu0.toL2Bus.snoop_filter.hit_multi_requests            3                       # Number of requests hitting in the snoop filter with multiple (>1) holders of the requested data.
system.cpu0.toL2Bus.snoop_filter.hit_multi_snoops            0                       # Number of snoops hitting in the snoop filter with multiple (>1) holders of the requested data.
system.cpu0.toL2Bus.snoop_filter.hit_single_requests          254                       # Number of requests hitting in the snoop filter with a single holder of the requested data.
system.cpu0.toL2Bus.snoop_filter.hit_single_snoops            0                       # Number of snoops hitting in the snoop filter with a single holder of the requested data.
system.cpu0.toL2Bus.snoop_filter.tot_requests         1438                       # Total number of requests made to the snoop filter.
system.cpu0.toL2Bus.snoop_filter.tot_snoops            0                       # Total number of snoops made to the snoop filter.
system.cpu0.toL3Bus.snoop_filter.hit_multi_requests            0                       # Number of requests hitting in the snoop filter with multiple (>1) holders of the requested data.
system.cpu0.toL3Bus.snoop_filter.hit_multi_snoops            0                       # Number of snoops hitting in the snoop filter with multiple (>1) holders of the requested data.
system.cpu0.toL3Bus.snoop_filter.hit_single_requests            0                       # Number of requests hitting in the snoop filter with a single holder of the requested data.
system.cpu0.toL3Bus.snoop_filter.hit_single_snoops            0                       # Number of snoops hitting in the snoop filter with a single holder of the requested data.
system.cpu0.toL3Bus.snoop_filter.tot_requests         1166                       # Total number of requests made to the snoop filter.
system.cpu0.toL3Bus.snoop_filter.tot_snoops            0                       # Total number of snoops made to the snoop filter.
system.cpu0.workload.numSyscalls                    7                       # Number of system calls
system.cpu1.Branches                                1                       # Number of branches fetched
system.cpu1.committedInsts                          1                       # Number of instructions committed
system.cpu1.committedOps                            5                       # Number of ops (including micro ops) committed
system.cpu1.dcache.prefetcher.num_hwpf_issued          167                       # number of hwpf issued
system.cpu1.dcache.prefetcher.pfBufferHit            0                       # number of redundant prefetches already in prefetch queue
system.cpu1.dcache.prefetcher.pfIdentified          167                       # number of prefetch candidates identified
system.cpu1.dcache.prefetcher.pfInCache             0                       # number of redundant prefetches already in cache/mshr dropped
system.cpu1.dcache.prefetcher.pfRemovedFull            0                       # number of prefetches dropped due to prefetch queue size
system.cpu1.dcache.prefetcher.pfSpanPage            1                       # number of prefetches that crossed the page
system.cpu1.dtb.rdAccesses                          0                       # TLB accesses on read requests
system.cpu1.dtb.rdMisses                            0                       # TLB misses on read requests
system.cpu1.dtb.wrAccesses                          1                       # TLB accesses on write requests
system.cpu1.dtb.wrMisses                            0                       # TLB misses on write requests
system.cpu1.idle_fraction                           0                       # Percentage of idle cycles
system.cpu1.itb.rdAccesses                          0                       # TLB accesses on read requests
system.cpu1.itb.rdMisses                            0                       # TLB misses on read requests
system.cpu1.itb.wrAccesses                          2                       # TLB accesses on write requests
system.cpu1.itb.wrMisses                            0                       # TLB misses on write requests
system.cpu1.not_idle_fraction                       1                       # Percentage of non-idle cycles
system.cpu1.numCycles                               6                       # number of cpu cycles simulated
system.cpu1.numWorkItemsCompleted                   0                       # number of work items this cpu completed
system.cpu1.numWorkItemsStarted                     0                       # number of work items this cpu started
system.cpu1.num_busy_cycles                         6                       # Number of busy cycles
system.cpu1.num_conditional_control_insts            0                       # number of instructions that are conditional controls
system.cpu1.num_fp_alu_accesses                     0                       # Number of float alu accesses
system.cpu1.num_fp_insts                            0                       # number of float instructions
system.cpu1.num_fp_register_reads                   0                       # number of times the floating registers were read
system.cpu1.num_fp_register_writes                  0                       # number of times the floating registers were written
system.cpu1.num_func_calls                          1                       # number of times a function call or return occured
system.cpu1.num_idle_cycles                         0                       # Number of idle cycles
system.cpu1.num_int_alu_accesses                    5                       # Number of integer alu accesses
system.cpu1.num_int_insts                           5                       # number of integer instructions
system.cpu1.num_int_register_reads                  9                       # number of times the integer registers were read
system.cpu1.num_int_register_writes                 3                       # number of times the integer registers were written
system.cpu1.num_load_insts                          0                       # Number of load instructions
system.cpu1.num_mem_refs                            1                       # number of memory refs
system.cpu1.num_store_insts                         1                       # Number of store instructions
system.cpu1.num_vec_alu_accesses                    0                       # Number of vector alu accesses
system.cpu1.num_vec_insts                           0                       # number of vector instructions
system.cpu1.num_vec_register_reads                  0                       # number of times the vector registers were read
system.cpu1.num_vec_register_writes                 0                       # number of times the vector registers were written
system.cpu1.op_class::No_OpClass                    0      0.00%      0.00% # Class of executed instruction
system.cpu1.op_class::IntAlu                        4     80.00%     80.00% # Class of executed instruction
system.cpu1.op_class::IntMult                       0      0.00%     80.00% # Class of executed instruction
system.cpu1.op_class::IntDiv                        0      0.00%     80.00% # Class of executed instruction
system.cpu1.op_class::FloatAdd                      0      0.00%     80.00% # Class of executed instruction
system.cpu1.op_class::FloatCmp                      0      0.00%     80.00% # Class of executed instruction
system.cpu1.op_class::FloatCvt                      0      0.00%     80.00% # Class of executed instruction
system.cpu1.op_class::FloatMult                     0      0.00%     80.00% # Class of executed instruction
system.cpu1.op_class::FloatMultAcc                  0      0.00%     80.00% # Class of executed instruction
system.cpu1.op_class::FloatDiv                      0      0.00%     80.00% # Class of executed instruction
system.cpu1.op_class::FloatMisc                     0      0.00%     80.00% # Class of executed instruction
system.cpu1.op_class::FloatSqrt                     0      0.00%     80.00% # Class of executed instruction
system.cpu1.op_class::SimdAdd                       0      0.00%     80.00% # Class of executed instruction
system.cpu1.op_class::SimdAddAcc                    0      0.00%     80.00% # Class of executed instruction
system.cpu1.op_class::SimdAlu                       0      0.00%     80.00% # Class of executed instruction
system.cpu1.op_class::SimdCmp                       0      0.00%     80.00% # Class of executed instruction
system.cpu1.op_class::SimdCvt                       0      0.00%     80.00% # Class of executed instruction
system.cpu1.op_class::SimdMisc                      0      0.00%     80.00% # Class of executed instruction
system.cpu1.op_class::SimdMult                      0      0.00%     80.00% # Class of executed instruction
system.cpu1.op_class::SimdMultAcc                   0      0.00%     80.00% # Class of executed instruction
system.cpu1.op_class::SimdShift                     0      0.00%     80.00% # Class of executed instruction
system.cpu1.op_class::SimdShiftAcc                  0      0.00%     80.00% # Class of executed instruction
system.cpu1.op_class::SimdDiv                       0      0.00%     80.00% # Class of executed instruction
system.cpu1.op_class::SimdSqrt                      0      0.00%     80.00% # Class of executed instruction
system.cpu1.op_class::SimdFloatAdd                  0      0.00%     80.00% # Class of executed instruction
system.cpu1.op_class::SimdFloatAlu                  0      0.00%     80.00% # Class of executed instruction
system.cpu1.op_class::SimdFloatCmp                  0      0.00%     80.00% # Class of executed instruction
system.cpu1.op_class::SimdFloatCvt                  0      0.00%     80.00% # Class of executed instruction
system.cpu1.op_class::SimdFloatDiv                  0      0.00%     80.00% # Class of executed instruction
system.cpu1.op_class::SimdFloatMisc                 0      0.00%     80.00% # Class of executed instruction
system.cpu1.op_class::SimdFloatMult                 0      0.00%     80.00% # Class of executed instruction
system.cpu1.op_class::SimdFloatMultAcc              0      0.00%     80.00% # Class of executed instruction
system.cpu1.op_class::SimdFloatSqrt                 0      0.00%     80.00% # Class of executed instruction
system.cpu1.op_class::SimdReduceAdd                 0      0.00%     80.00% # Class of executed instruction
system.cpu1.op_class::SimdReduceAlu                 0      0.00%     80.00% # Class of executed instruction
system.cpu1.op_class::SimdReduceCmp                 0      0.00%     80.00% # Class of executed instruction
system.cpu1.op_class::SimdFloatReduceAdd            0      0.00%     80.00% # Class of executed instruction
system.cpu1.op_class::SimdFloatReduceCmp            0      0.00%     80.00% # Class of executed instruction
system.cpu1.op_class::SimdAes                       0      0.00%     80.00% # Class of executed instruction
system.cpu1.op_class::SimdAesMix                    0      0.00%     80.00% # Class of executed instruction
system.cpu1.op_class::SimdSha1Hash                  0      0.00%     80.00% # Class of executed instruction
system.cpu1.op_class::SimdSha1Hash2                 0      0.00%     80.00% # Class of executed instruction
system.cpu1.op_class::SimdSha256Hash                0      0.00%     80.00% # Class of executed instruction
system.cpu1.op_class::SimdSha256Hash2               0      0.00%     80.00% # Class of executed instruction
system.cpu1.op_class::SimdShaSigma2                 0      0.00%     80.00% # Class of executed instruction
system.cpu1.op_class::SimdShaSigma3                 0      0.00%     80.00% # Class of executed instruction
system.cpu1.op_class::SimdPredAlu                   0      0.00%     80.00% # Class of executed instruction
system.cpu1.op_class::MemRead                       0      0.00%     80.00% # Class of executed instruction
system.cpu1.op_class::MemWrite                      1     20.00%    100.00% # Class of executed instruction
system.cpu1.op_class::FloatMemRead                  0      0.00%    100.00% # Class of executed instruction
system.cpu1.op_class::FloatMemWrite                 0      0.00%    100.00% # Class of executed instruction
system.cpu1.op_class::IprAccess                     0      0.00%    100.00% # Class of executed instruction
system.cpu1.op_class::InstPrefetch                  0      0.00%    100.00% # Class of executed instruction
system.cpu1.op_class::total                         5                       # Class of executed instruction
system.cpu1.toL2Bus.snoop_filter.hit_multi_requests           41                       # Number of requests hitting in the snoop filter with multiple (>1) holders of the requested data.
system.cpu1.toL2Bus.snoop_filter.hit_multi_snoops            0                       # Number of snoops hitting in the snoop filter with multiple (>1) holders of the requested data.
system.cpu1.toL2Bus.snoop_filter.hit_single_requests        56351                       # Number of requests hitting in the snoop filter with a single holder of the requested data.
system.cpu1.toL2Bus.snoop_filter.hit_single_snoops          497                       # Number of snoops hitting in the snoop filter with a single holder of the requested data.
system.cpu1.toL2Bus.snoop_filter.tot_requests       113499                       # Total number of requests made to the snoop filter.
system.cpu1.toL2Bus.snoop_filter.tot_snoops          497                       # Total number of snoops made to the snoop filter.
system.cpu1.toL3Bus.snoop_filter.hit_multi_requests            0                       # Number of requests hitting in the snoop filter with multiple (>1) holders of the requested data.
system.cpu1.toL3Bus.snoop_filter.hit_multi_snoops            0                       # Number of snoops hitting in the snoop filter with multiple (>1) holders of the requested data.
system.cpu1.toL3Bus.snoop_filter.hit_single_requests        25925                       # Number of requests hitting in the snoop filter with a single holder of the requested data.
system.cpu1.toL3Bus.snoop_filter.hit_single_snoops          235                       # Number of snoops hitting in the snoop filter with a single holder of the requested data.
system.cpu1.toL3Bus.snoop_filter.tot_requests        56266                       # Total number of requests made to the snoop filter.
system.cpu1.toL3Bus.snoop_filter.tot_snoops          235                       # Total number of snoops made to the snoop filter.
system.cpu1.workload.numSyscalls                16971                       # Number of system calls
system.membus.snoop_filter.hit_multi_requests            0                       # Number of requests hitting in the snoop filter with multiple (>1) holders of the requested data.
system.membus.snoop_filter.hit_multi_snoops            0                       # Number of snoops hitting in the snoop filter with multiple (>1) holders of the requested data.
system.membus.snoop_filter.hit_single_requests          604                       # Number of requests hitting in the snoop filter with a single holder of the requested data.
system.membus.snoop_filter.hit_single_snoops            0                       # Number of snoops hitting in the snoop filter with a single holder of the requested data.
system.membus.snoop_filter.tot_requests         32092                       # Total number of requests made to the snoop filter.
system.membus.snoop_filter.tot_snoops               0                       # Total number of snoops made to the snoop filter.
system.switch_cpus0.Branches                   236425                       # Number of branches fetched
system.switch_cpus0.committedInsts            1000002                       # Number of instructions committed
system.switch_cpus0.committedOps              1894148                       # Number of ops (including micro ops) committed
system.switch_cpus0.dtb.rdAccesses             247055                       # TLB accesses on read requests
system.switch_cpus0.dtb.rdMisses                   20                       # TLB misses on read requests
system.switch_cpus0.dtb.wrAccesses             167083                       # TLB accesses on write requests
system.switch_cpus0.dtb.wrMisses                    5                       # TLB misses on write requests
system.switch_cpus0.idle_fraction            0.000000                       # Percentage of idle cycles
system.switch_cpus0.itb.rdAccesses                  0                       # TLB accesses on read requests
system.switch_cpus0.itb.rdMisses                    0                       # TLB misses on read requests
system.switch_cpus0.itb.wrAccesses            1412969                       # TLB accesses on write requests
system.switch_cpus0.itb.wrMisses                   23                       # TLB misses on write requests
system.switch_cpus0.not_idle_fraction        1.000000                       # Percentage of non-idle cycles
system.switch_cpus0.numCycles                 5538839                       # number of cpu cycles simulated
system.switch_cpus0.numWorkItemsCompleted            0                       # number of work items this cpu completed
system.switch_cpus0.numWorkItemsStarted             0                       # number of work items this cpu started
system.switch_cpus0.num_busy_cycles      5538838.505280                       # Number of busy cycles
system.switch_cpus0.num_cc_register_reads      1127592                       # number of times the CC registers were read
system.switch_cpus0.num_cc_register_writes       559208                       # number of times the CC registers were written
system.switch_cpus0.num_conditional_control_insts       186789                       # number of instructions that are conditional controls
system.switch_cpus0.num_fp_alu_accesses         15224                       # Number of float alu accesses
system.switch_cpus0.num_fp_insts                15224                       # number of float instructions
system.switch_cpus0.num_fp_register_reads         7942                       # number of times the floating registers were read
system.switch_cpus0.num_fp_register_writes         8836                       # number of times the floating registers were written
system.switch_cpus0.num_func_calls              16349                       # number of times a function call or return occured
system.switch_cpus0.num_idle_cycles          0.494720                       # Number of idle cycles
system.switch_cpus0.num_int_alu_accesses      1889696                       # Number of integer alu accesses
system.switch_cpus0.num_int_insts             1889696                       # number of integer instructions
system.switch_cpus0.num_int_register_reads      3667681                       # number of times the integer registers were read
system.switch_cpus0.num_int_register_writes      1482166                       # number of times the integer registers were written
system.switch_cpus0.num_load_insts             247055                       # Number of load instructions
system.switch_cpus0.num_mem_refs               414138                       # number of memory refs
system.switch_cpus0.num_store_insts            167083                       # Number of store instructions
system.switch_cpus0.num_vec_alu_accesses            0                       # Number of vector alu accesses
system.switch_cpus0.num_vec_insts                   0                       # number of vector instructions
system.switch_cpus0.num_vec_register_reads            0                       # number of times the vector registers were read
system.switch_cpus0.num_vec_register_writes            0                       # number of times the vector registers were written
system.switch_cpus0.op_class::No_OpClass         2078      0.11%      0.11% # Class of executed instruction
system.switch_cpus0.op_class::IntAlu          1473266     77.78%     77.89% # Class of executed instruction
system.switch_cpus0.op_class::IntMult            2144      0.11%     78.00% # Class of executed instruction
system.switch_cpus0.op_class::IntDiv                0      0.00%     78.00% # Class of executed instruction
system.switch_cpus0.op_class::FloatAdd           1708      0.09%     78.09% # Class of executed instruction
system.switch_cpus0.op_class::FloatCmp              0      0.00%     78.09% # Class of executed instruction
system.switch_cpus0.op_class::FloatCvt              0      0.00%     78.09% # Class of executed instruction
system.switch_cpus0.op_class::FloatMult             0      0.00%     78.09% # Class of executed instruction
system.switch_cpus0.op_class::FloatMultAcc            0      0.00%     78.09% # Class of executed instruction
system.switch_cpus0.op_class::FloatDiv              0      0.00%     78.09% # Class of executed instruction
system.switch_cpus0.op_class::FloatMisc             0      0.00%     78.09% # Class of executed instruction
system.switch_cpus0.op_class::FloatSqrt             0      0.00%     78.09% # Class of executed instruction
system.switch_cpus0.op_class::SimdAdd               0      0.00%     78.09% # Class of executed instruction
system.switch_cpus0.op_class::SimdAddAcc            0      0.00%     78.09% # Class of executed instruction
system.switch_cpus0.op_class::SimdAlu               0      0.00%     78.09% # Class of executed instruction
system.switch_cpus0.op_class::SimdCmp               0      0.00%     78.09% # Class of executed instruction
system.switch_cpus0.op_class::SimdCvt             148      0.01%     78.10% # Class of executed instruction
system.switch_cpus0.op_class::SimdMisc            666      0.04%     78.14% # Class of executed instruction
system.switch_cpus0.op_class::SimdMult              0      0.00%     78.14% # Class of executed instruction
system.switch_cpus0.op_class::SimdMultAcc            0      0.00%     78.14% # Class of executed instruction
system.switch_cpus0.op_class::SimdShift             0      0.00%     78.14% # Class of executed instruction
system.switch_cpus0.op_class::SimdShiftAcc            0      0.00%     78.14% # Class of executed instruction
system.switch_cpus0.op_class::SimdDiv               0      0.00%     78.14% # Class of executed instruction
system.switch_cpus0.op_class::SimdSqrt              0      0.00%     78.14% # Class of executed instruction
system.switch_cpus0.op_class::SimdFloatAdd            0      0.00%     78.14% # Class of executed instruction
system.switch_cpus0.op_class::SimdFloatAlu            0      0.00%     78.14% # Class of executed instruction
system.switch_cpus0.op_class::SimdFloatCmp            0      0.00%     78.14% # Class of executed instruction
system.switch_cpus0.op_class::SimdFloatCvt            0      0.00%     78.14% # Class of executed instruction
system.switch_cpus0.op_class::SimdFloatDiv            0      0.00%     78.14% # Class of executed instruction
system.switch_cpus0.op_class::SimdFloatMisc            0      0.00%     78.14% # Class of executed instruction
system.switch_cpus0.op_class::SimdFloatMult            0      0.00%     78.14% # Class of executed instruction
system.switch_cpus0.op_class::SimdFloatMultAcc            0      0.00%     78.14% # Class of executed instruction
system.switch_cpus0.op_class::SimdFloatSqrt            0      0.00%     78.14% # Class of executed instruction
system.switch_cpus0.op_class::SimdReduceAdd            0      0.00%     78.14% # Class of executed instruction
system.switch_cpus0.op_class::SimdReduceAlu            0      0.00%     78.14% # Class of executed instruction
system.switch_cpus0.op_class::SimdReduceCmp            0      0.00%     78.14% # Class of executed instruction
system.switch_cpus0.op_class::SimdFloatReduceAdd            0      0.00%     78.14% # Class of executed instruction
system.switch_cpus0.op_class::SimdFloatReduceCmp            0      0.00%     78.14% # Class of executed instruction
system.switch_cpus0.op_class::SimdAes               0      0.00%     78.14% # Class of executed instruction
system.switch_cpus0.op_class::SimdAesMix            0      0.00%     78.14% # Class of executed instruction
system.switch_cpus0.op_class::SimdSha1Hash            0      0.00%     78.14% # Class of executed instruction
system.switch_cpus0.op_class::SimdSha1Hash2            0      0.00%     78.14% # Class of executed instruction
system.switch_cpus0.op_class::SimdSha256Hash            0      0.00%     78.14% # Class of executed instruction
system.switch_cpus0.op_class::SimdSha256Hash2            0      0.00%     78.14% # Class of executed instruction
system.switch_cpus0.op_class::SimdShaSigma2            0      0.00%     78.14% # Class of executed instruction
system.switch_cpus0.op_class::SimdShaSigma3            0      0.00%     78.14% # Class of executed instruction
system.switch_cpus0.op_class::SimdPredAlu            0      0.00%     78.14% # Class of executed instruction
system.switch_cpus0.op_class::MemRead          240667     12.71%     90.84% # Class of executed instruction
system.switch_cpus0.op_class::MemWrite         160843      8.49%     99.33% # Class of executed instruction
system.switch_cpus0.op_class::FloatMemRead         6388      0.34%     99.67% # Class of executed instruction
system.switch_cpus0.op_class::FloatMemWrite         6240      0.33%    100.00% # Class of executed instruction
system.switch_cpus0.op_class::IprAccess             0      0.00%    100.00% # Class of executed instruction
system.switch_cpus0.op_class::InstPrefetch            0      0.00%    100.00% # Class of executed instruction
system.switch_cpus0.op_class::total           1894148                       # Class of executed instruction
system.switch_cpus1.Branches                   212449                       # Number of branches fetched
system.switch_cpus1.committedInsts             944990                       # Number of instructions committed
system.switch_cpus1.committedOps              1912727                       # Number of ops (including micro ops) committed
system.switch_cpus1.dtb.rdAccesses             275929                       # TLB accesses on read requests
system.switch_cpus1.dtb.rdMisses                   40                       # TLB misses on read requests
system.switch_cpus1.dtb.wrAccesses             201553                       # TLB accesses on write requests
system.switch_cpus1.dtb.wrMisses                    3                       # TLB misses on write requests
system.switch_cpus1.idle_fraction            0.000000                       # Percentage of idle cycles
system.switch_cpus1.itb.rdAccesses                  0                       # TLB accesses on read requests
system.switch_cpus1.itb.rdMisses                    0                       # TLB misses on read requests
system.switch_cpus1.itb.wrAccesses            1198017                       # TLB accesses on write requests
system.switch_cpus1.itb.wrMisses                   27                       # TLB misses on write requests
system.switch_cpus1.not_idle_fraction        1.000000                       # Percentage of non-idle cycles
system.switch_cpus1.numCycles                 5538839                       # number of cpu cycles simulated
system.switch_cpus1.numWorkItemsCompleted            0                       # number of work items this cpu completed
system.switch_cpus1.numWorkItemsStarted             0                       # number of work items this cpu started
system.switch_cpus1.num_busy_cycles      5538838.505280                       # Number of busy cycles
system.switch_cpus1.num_cc_register_reads       791990                       # number of times the CC registers were read
system.switch_cpus1.num_cc_register_writes       424636                       # number of times the CC registers were written
system.switch_cpus1.num_conditional_control_insts        96781                       # number of instructions that are conditional controls
system.switch_cpus1.num_fp_alu_accesses         15529                       # Number of float alu accesses
system.switch_cpus1.num_fp_insts                15529                       # number of float instructions
system.switch_cpus1.num_fp_register_reads        26069                       # number of times the floating registers were read
system.switch_cpus1.num_fp_register_writes        13659                       # number of times the floating registers were written
system.switch_cpus1.num_func_calls             100237                       # number of times a function call or return occured
system.switch_cpus1.num_idle_cycles          0.494720                       # Number of idle cycles
system.switch_cpus1.num_int_alu_accesses      1893092                       # Number of integer alu accesses
system.switch_cpus1.num_int_insts             1893092                       # number of integer instructions
system.switch_cpus1.num_int_register_reads      4013200                       # number of times the integer registers were read
system.switch_cpus1.num_int_register_writes      1485009                       # number of times the integer registers were written
system.switch_cpus1.num_load_insts             275927                       # Number of load instructions
system.switch_cpus1.num_mem_refs               477478                       # number of memory refs
system.switch_cpus1.num_store_insts            201551                       # Number of store instructions
system.switch_cpus1.num_vec_alu_accesses            0                       # Number of vector alu accesses
system.switch_cpus1.num_vec_insts                   0                       # number of vector instructions
system.switch_cpus1.num_vec_register_reads            0                       # number of times the vector registers were read
system.switch_cpus1.num_vec_register_writes            0                       # number of times the vector registers were written
system.switch_cpus1.op_class::No_OpClass         6376      0.33%      0.33% # Class of executed instruction
system.switch_cpus1.op_class::IntAlu          1414641     73.96%     74.29% # Class of executed instruction
system.switch_cpus1.op_class::IntMult             884      0.05%     74.34% # Class of executed instruction
system.switch_cpus1.op_class::IntDiv             2170      0.11%     74.45% # Class of executed instruction
system.switch_cpus1.op_class::FloatAdd            619      0.03%     74.48% # Class of executed instruction
system.switch_cpus1.op_class::FloatCmp              0      0.00%     74.48% # Class of executed instruction
system.switch_cpus1.op_class::FloatCvt              0      0.00%     74.48% # Class of executed instruction
system.switch_cpus1.op_class::FloatMult             0      0.00%     74.48% # Class of executed instruction
system.switch_cpus1.op_class::FloatMultAcc            0      0.00%     74.48% # Class of executed instruction
system.switch_cpus1.op_class::FloatDiv              0      0.00%     74.48% # Class of executed instruction
system.switch_cpus1.op_class::FloatMisc             0      0.00%     74.48% # Class of executed instruction
system.switch_cpus1.op_class::FloatSqrt             0      0.00%     74.48% # Class of executed instruction
system.switch_cpus1.op_class::SimdAdd               0      0.00%     74.48% # Class of executed instruction
system.switch_cpus1.op_class::SimdAddAcc            0      0.00%     74.48% # Class of executed instruction
system.switch_cpus1.op_class::SimdAlu            2484      0.13%     74.61% # Class of executed instruction
system.switch_cpus1.op_class::SimdCmp               0      0.00%     74.61% # Class of executed instruction
system.switch_cpus1.op_class::SimdCvt            2490      0.13%     74.74% # Class of executed instruction
system.switch_cpus1.op_class::SimdMisc           5585      0.29%     75.04% # Class of executed instruction
system.switch_cpus1.op_class::SimdMult              0      0.00%     75.04% # Class of executed instruction
system.switch_cpus1.op_class::SimdMultAcc            0      0.00%     75.04% # Class of executed instruction
system.switch_cpus1.op_class::SimdShift             0      0.00%     75.04% # Class of executed instruction
system.switch_cpus1.op_class::SimdShiftAcc            0      0.00%     75.04% # Class of executed instruction
system.switch_cpus1.op_class::SimdDiv               0      0.00%     75.04% # Class of executed instruction
system.switch_cpus1.op_class::SimdSqrt              0      0.00%     75.04% # Class of executed instruction
system.switch_cpus1.op_class::SimdFloatAdd            0      0.00%     75.04% # Class of executed instruction
system.switch_cpus1.op_class::SimdFloatAlu            0      0.00%     75.04% # Class of executed instruction
system.switch_cpus1.op_class::SimdFloatCmp            0      0.00%     75.04% # Class of executed instruction
system.switch_cpus1.op_class::SimdFloatCvt            0      0.00%     75.04% # Class of executed instruction
system.switch_cpus1.op_class::SimdFloatDiv            0      0.00%     75.04% # Class of executed instruction
system.switch_cpus1.op_class::SimdFloatMisc            0      0.00%     75.04% # Class of executed instruction
system.switch_cpus1.op_class::SimdFloatMult            0      0.00%     75.04% # Class of executed instruction
system.switch_cpus1.op_class::SimdFloatMultAcc            0      0.00%     75.04% # Class of executed instruction
system.switch_cpus1.op_class::SimdFloatSqrt            0      0.00%     75.04% # Class of executed instruction
system.switch_cpus1.op_class::SimdReduceAdd            0      0.00%     75.04% # Class of executed instruction
system.switch_cpus1.op_class::SimdReduceAlu            0      0.00%     75.04% # Class of executed instruction
system.switch_cpus1.op_class::SimdReduceCmp            0      0.00%     75.04% # Class of executed instruction
system.switch_cpus1.op_class::SimdFloatReduceAdd            0      0.00%     75.04% # Class of executed instruction
system.switch_cpus1.op_class::SimdFloatReduceCmp            0      0.00%     75.04% # Class of executed instruction
system.switch_cpus1.op_class::SimdAes               0      0.00%     75.04% # Class of executed instruction
system.switch_cpus1.op_class::SimdAesMix            0      0.00%     75.04% # Class of executed instruction
system.switch_cpus1.op_class::SimdSha1Hash            0      0.00%     75.04% # Class of executed instruction
system.switch_cpus1.op_class::SimdSha1Hash2            0      0.00%     75.04% # Class of executed instruction
system.switch_cpus1.op_class::SimdSha256Hash            0      0.00%     75.04% # Class of executed instruction
system.switch_cpus1.op_class::SimdSha256Hash2            0      0.00%     75.04% # Class of executed instruction
system.switch_cpus1.op_class::SimdShaSigma2            0      0.00%     75.04% # Class of executed instruction
system.switch_cpus1.op_class::SimdShaSigma3            0      0.00%     75.04% # Class of executed instruction
system.switch_cpus1.op_class::SimdPredAlu            0      0.00%     75.04% # Class of executed instruction
system.switch_cpus1.op_class::MemRead          274051     14.33%     89.36% # Class of executed instruction
system.switch_cpus1.op_class::MemWrite         200933     10.51%     99.87% # Class of executed instruction
system.switch_cpus1.op_class::FloatMemRead         1876      0.10%     99.97% # Class of executed instruction
system.switch_cpus1.op_class::FloatMemWrite          618      0.03%    100.00% # Class of executed instruction
system.switch_cpus1.op_class::IprAccess             0      0.00%    100.00% # Class of executed instruction
system.switch_cpus1.op_class::InstPrefetch            0      0.00%    100.00% # Class of executed instruction
system.switch_cpus1.op_class::total           1912727                       # Class of executed instruction
system.switch_cpus_10.branchPred.BTBCorrect            0                       # Number of correct BTB predictions (this stat may not work properly.
system.switch_cpus_10.branchPred.BTBHitPct     0.000000                       # BTB Hit Percentage
system.switch_cpus_10.branchPred.BTBHits            0                       # Number of BTB hits
system.switch_cpus_10.branchPred.BTBLookups        32058                       # Number of BTB lookups
system.switch_cpus_10.branchPred.RASInCorrect            9                       # Number of incorrect RAS predictions.
system.switch_cpus_10.branchPred.condIncorrect         1970                       # Number of conditional branches incorrect
system.switch_cpus_10.branchPred.condPredicted        32317                       # Number of conditional branches predicted
system.switch_cpus_10.branchPred.indirectHits        13182                       # Number of indirect target hits.
system.switch_cpus_10.branchPred.indirectLookups        32058                       # Number of indirect predictor lookups.
system.switch_cpus_10.branchPred.indirectMisses        18876                       # Number of indirect misses.
system.switch_cpus_10.branchPred.lookups        35515                       # Number of BP lookups
system.switch_cpus_10.branchPred.usedRAS         1302                       # Number of times the RAS was used to get a target.
system.switch_cpus_10.branchPredindirectMispredicted         1469                       # Number of mispredicted indirect branches.
system.switch_cpus_10.cc_regfile_reads         137377                       # number of cc regfile reads
system.switch_cpus_10.cc_regfile_writes         70439                       # number of cc regfile writes
system.switch_cpus_10.commit.amos                   0                       # Number of atomic instructions committed
system.switch_cpus_10.commit.branchMispredicts         1970                       # The number of times a branch was mispredicted
system.switch_cpus_10.commit.branches           26861                       # Number of branches committed
system.switch_cpus_10.commit.bw_lim_events        10598                       # number cycles where commit BW limit reached
system.switch_cpus_10.commit.commitNonSpecStalls           53                       # The number of times commit has been forced to stall to communicate backwards
system.switch_cpus_10.commit.commitSquashedInsts        43294                       # The number of squashed insts skipped by commit
system.switch_cpus_10.commit.committedInsts       114071                       # Number of instructions committed
system.switch_cpus_10.commit.committedOps       217445                       # Number of ops (including micro ops) committed
system.switch_cpus_10.commit.committed_per_cycle::samples       125646                       # Number of insts commited each cycle
system.switch_cpus_10.commit.committed_per_cycle::mean     1.730616                       # Number of insts commited each cycle
system.switch_cpus_10.commit.committed_per_cycle::stdev     2.514203                       # Number of insts commited each cycle
system.switch_cpus_10.commit.committed_per_cycle::underflows            0      0.00%      0.00% # Number of insts commited each cycle
system.switch_cpus_10.commit.committed_per_cycle::0        65588     52.20%     52.20% # Number of insts commited each cycle
system.switch_cpus_10.commit.committed_per_cycle::1        16794     13.37%     65.57% # Number of insts commited each cycle
system.switch_cpus_10.commit.committed_per_cycle::2         7455      5.93%     71.50% # Number of insts commited each cycle
system.switch_cpus_10.commit.committed_per_cycle::3        13209     10.51%     82.01% # Number of insts commited each cycle
system.switch_cpus_10.commit.committed_per_cycle::4         4260      3.39%     85.40% # Number of insts commited each cycle
system.switch_cpus_10.commit.committed_per_cycle::5         4005      3.19%     88.59% # Number of insts commited each cycle
system.switch_cpus_10.commit.committed_per_cycle::6         1894      1.51%     90.10% # Number of insts commited each cycle
system.switch_cpus_10.commit.committed_per_cycle::7         1843      1.47%     91.57% # Number of insts commited each cycle
system.switch_cpus_10.commit.committed_per_cycle::8        10598      8.43%    100.00% # Number of insts commited each cycle
system.switch_cpus_10.commit.committed_per_cycle::overflows            0      0.00%    100.00% # Number of insts commited each cycle
system.switch_cpus_10.commit.committed_per_cycle::min_value            0                       # Number of insts commited each cycle
system.switch_cpus_10.commit.committed_per_cycle::max_value            8                       # Number of insts commited each cycle
system.switch_cpus_10.commit.committed_per_cycle::total       125646                       # Number of insts commited each cycle
system.switch_cpus_10.commit.fp_insts            2474                       # Number of committed floating point instructions.
system.switch_cpus_10.commit.function_calls         1004                       # Number of function calls committed.
system.switch_cpus_10.commit.int_insts         216562                       # Number of committed integer instructions.
system.switch_cpus_10.commit.loads              28881                       # Number of loads committed
system.switch_cpus_10.commit.membars                0                       # Number of memory barriers committed
system.switch_cpus_10.commit.op_class_0::No_OpClass          328      0.15%      0.15% # Class of committed instruction
system.switch_cpus_10.commit.op_class_0::IntAlu       168369     77.43%     77.58% # Class of committed instruction
system.switch_cpus_10.commit.op_class_0::IntMult          224      0.10%     77.68% # Class of committed instruction
system.switch_cpus_10.commit.op_class_0::IntDiv           77      0.04%     77.72% # Class of committed instruction
system.switch_cpus_10.commit.op_class_0::FloatAdd          228      0.10%     77.82% # Class of committed instruction
system.switch_cpus_10.commit.op_class_0::FloatCmp            0      0.00%     77.82% # Class of committed instruction
system.switch_cpus_10.commit.op_class_0::FloatCvt           80      0.04%     77.86% # Class of committed instruction
system.switch_cpus_10.commit.op_class_0::FloatMult            0      0.00%     77.86% # Class of committed instruction
system.switch_cpus_10.commit.op_class_0::FloatMultAcc            0      0.00%     77.86% # Class of committed instruction
system.switch_cpus_10.commit.op_class_0::FloatDiv            0      0.00%     77.86% # Class of committed instruction
system.switch_cpus_10.commit.op_class_0::FloatMisc            0      0.00%     77.86% # Class of committed instruction
system.switch_cpus_10.commit.op_class_0::FloatSqrt            0      0.00%     77.86% # Class of committed instruction
system.switch_cpus_10.commit.op_class_0::SimdAdd           28      0.01%     77.87% # Class of committed instruction
system.switch_cpus_10.commit.op_class_0::SimdAddAcc            0      0.00%     77.87% # Class of committed instruction
system.switch_cpus_10.commit.op_class_0::SimdAlu           67      0.03%     77.91% # Class of committed instruction
system.switch_cpus_10.commit.op_class_0::SimdCmp            0      0.00%     77.91% # Class of committed instruction
system.switch_cpus_10.commit.op_class_0::SimdCvt          104      0.05%     77.95% # Class of committed instruction
system.switch_cpus_10.commit.op_class_0::SimdMisc          178      0.08%     78.03% # Class of committed instruction
system.switch_cpus_10.commit.op_class_0::SimdMult            0      0.00%     78.03% # Class of committed instruction
system.switch_cpus_10.commit.op_class_0::SimdMultAcc            0      0.00%     78.03% # Class of committed instruction
system.switch_cpus_10.commit.op_class_0::SimdShift           27      0.01%     78.05% # Class of committed instruction
system.switch_cpus_10.commit.op_class_0::SimdShiftAcc            0      0.00%     78.05% # Class of committed instruction
system.switch_cpus_10.commit.op_class_0::SimdDiv            0      0.00%     78.05% # Class of committed instruction
system.switch_cpus_10.commit.op_class_0::SimdSqrt            0      0.00%     78.05% # Class of committed instruction
system.switch_cpus_10.commit.op_class_0::SimdFloatAdd            0      0.00%     78.05% # Class of committed instruction
system.switch_cpus_10.commit.op_class_0::SimdFloatAlu            0      0.00%     78.05% # Class of committed instruction
system.switch_cpus_10.commit.op_class_0::SimdFloatCmp            0      0.00%     78.05% # Class of committed instruction
system.switch_cpus_10.commit.op_class_0::SimdFloatCvt            0      0.00%     78.05% # Class of committed instruction
system.switch_cpus_10.commit.op_class_0::SimdFloatDiv            0      0.00%     78.05% # Class of committed instruction
system.switch_cpus_10.commit.op_class_0::SimdFloatMisc            0      0.00%     78.05% # Class of committed instruction
system.switch_cpus_10.commit.op_class_0::SimdFloatMult            0      0.00%     78.05% # Class of committed instruction
system.switch_cpus_10.commit.op_class_0::SimdFloatMultAcc            0      0.00%     78.05% # Class of committed instruction
system.switch_cpus_10.commit.op_class_0::SimdFloatSqrt            0      0.00%     78.05% # Class of committed instruction
system.switch_cpus_10.commit.op_class_0::SimdReduceAdd            0      0.00%     78.05% # Class of committed instruction
system.switch_cpus_10.commit.op_class_0::SimdReduceAlu            0      0.00%     78.05% # Class of committed instruction
system.switch_cpus_10.commit.op_class_0::SimdReduceCmp            0      0.00%     78.05% # Class of committed instruction
system.switch_cpus_10.commit.op_class_0::SimdFloatReduceAdd            0      0.00%     78.05% # Class of committed instruction
system.switch_cpus_10.commit.op_class_0::SimdFloatReduceCmp            0      0.00%     78.05% # Class of committed instruction
system.switch_cpus_10.commit.op_class_0::SimdAes            0      0.00%     78.05% # Class of committed instruction
system.switch_cpus_10.commit.op_class_0::SimdAesMix            0      0.00%     78.05% # Class of committed instruction
system.switch_cpus_10.commit.op_class_0::SimdSha1Hash            0      0.00%     78.05% # Class of committed instruction
system.switch_cpus_10.commit.op_class_0::SimdSha1Hash2            0      0.00%     78.05% # Class of committed instruction
system.switch_cpus_10.commit.op_class_0::SimdSha256Hash            0      0.00%     78.05% # Class of committed instruction
system.switch_cpus_10.commit.op_class_0::SimdSha256Hash2            0      0.00%     78.05% # Class of committed instruction
system.switch_cpus_10.commit.op_class_0::SimdShaSigma2            0      0.00%     78.05% # Class of committed instruction
system.switch_cpus_10.commit.op_class_0::SimdShaSigma3            0      0.00%     78.05% # Class of committed instruction
system.switch_cpus_10.commit.op_class_0::SimdPredAlu            0      0.00%     78.05% # Class of committed instruction
system.switch_cpus_10.commit.op_class_0::MemRead        27975     12.87%     90.91% # Class of committed instruction
system.switch_cpus_10.commit.op_class_0::MemWrite        18026      8.29%     99.20% # Class of committed instruction
system.switch_cpus_10.commit.op_class_0::FloatMemRead          906      0.42%     99.62% # Class of committed instruction
system.switch_cpus_10.commit.op_class_0::FloatMemWrite          828      0.38%    100.00% # Class of committed instruction
system.switch_cpus_10.commit.op_class_0::IprAccess            0      0.00%    100.00% # Class of committed instruction
system.switch_cpus_10.commit.op_class_0::InstPrefetch            0      0.00%    100.00% # Class of committed instruction
system.switch_cpus_10.commit.op_class_0::total       217445                       # Class of committed instruction
system.switch_cpus_10.commit.refs               47735                       # Number of memory references committed
system.switch_cpus_10.commit.swp_count              0                       # Number of s/w prefetches committed
system.switch_cpus_10.commit.vec_insts              0                       # Number of committed Vector instructions.
system.switch_cpus_10.committedInsts           114071                       # Number of Instructions Simulated
system.switch_cpus_10.committedOps             217445                       # Number of Ops (including micro ops) Simulated
system.switch_cpus_10.cpi                    1.630528                       # CPI: Cycles Per Instruction
system.switch_cpus_10.cpi_total              1.630528                       # CPI: Total CPI of All Threads
system.switch_cpus_10.decode.BlockedCycles        30712                       # Number of cycles decode is blocked
system.switch_cpus_10.decode.DecodedInsts       280683                       # Number of instructions handled by decode
system.switch_cpus_10.decode.IdleCycles         55446                       # Number of cycles decode is idle
system.switch_cpus_10.decode.RunCycles          44200                       # Number of cycles decode is running
system.switch_cpus_10.decode.SquashCycles         2001                       # Number of cycles decode is squashing
system.switch_cpus_10.decode.UnblockCycles          436                       # Number of cycles decode is unblocking
system.switch_cpus_10.dtb.rdAccesses            32993                       # TLB accesses on read requests
system.switch_cpus_10.dtb.rdMisses                 97                       # TLB misses on read requests
system.switch_cpus_10.dtb.wrAccesses            20658                       # TLB accesses on write requests
system.switch_cpus_10.dtb.wrMisses                  4                       # TLB misses on write requests
system.switch_cpus_10.fetch.Branches            35515                       # Number of branches that fetch encountered
system.switch_cpus_10.fetch.CacheLines          23383                       # Number of cache lines fetched
system.switch_cpus_10.fetch.Cycles              71297                       # Number of cycles fetch has run and was not squashing or blocked
system.switch_cpus_10.fetch.IcacheSquashes         1012                       # Number of outstanding Icache misses that were squashed
system.switch_cpus_10.fetch.IcacheWaitRetryStallCycles          298                       # Number of stall cycles due to full MSHR
system.switch_cpus_10.fetch.Insts              150734                       # Number of instructions fetch has processed
system.switch_cpus_10.fetch.MiscStallCycles          127                       # Number of cycles fetch has spent waiting on interrupts, or bad addresses, or out of MSHRs
system.switch_cpus_10.fetch.PendingQuiesceStallCycles           43                       # Number of stall cycles due to pending quiesce instructions
system.switch_cpus_10.fetch.SquashCycles         4002                       # Number of cycles fetch has spent squashing
system.switch_cpus_10.fetch.branchRate       0.190945                       # Number of branch fetches per cycle
system.switch_cpus_10.fetch.icacheStallCycles        59039                       # Number of cycles fetch is stalled on an Icache miss
system.switch_cpus_10.fetch.predictedBranches        14484                       # Number of branches that fetch has predicted taken
system.switch_cpus_10.fetch.rate             0.810415                       # Number of inst fetches per cycle
system.switch_cpus_10.fetch.rateDist::samples       132805                       # Number of instructions fetched each cycle (Total)
system.switch_cpus_10.fetch.rateDist::mean     2.183306                       # Number of instructions fetched each cycle (Total)
system.switch_cpus_10.fetch.rateDist::stdev     3.274717                       # Number of instructions fetched each cycle (Total)
system.switch_cpus_10.fetch.rateDist::underflows            0      0.00%      0.00% # Number of instructions fetched each cycle (Total)
system.switch_cpus_10.fetch.rateDist::0         86167     64.88%     64.88% # Number of instructions fetched each cycle (Total)
system.switch_cpus_10.fetch.rateDist::1          2351      1.77%     66.65% # Number of instructions fetched each cycle (Total)
system.switch_cpus_10.fetch.rateDist::2          2700      2.03%     68.69% # Number of instructions fetched each cycle (Total)
system.switch_cpus_10.fetch.rateDist::3          3484      2.62%     71.31% # Number of instructions fetched each cycle (Total)
system.switch_cpus_10.fetch.rateDist::4          3673      2.77%     74.07% # Number of instructions fetched each cycle (Total)
system.switch_cpus_10.fetch.rateDist::5          3387      2.55%     76.63% # Number of instructions fetched each cycle (Total)
system.switch_cpus_10.fetch.rateDist::6          2908      2.19%     78.81% # Number of instructions fetched each cycle (Total)
system.switch_cpus_10.fetch.rateDist::7          2404      1.81%     80.62% # Number of instructions fetched each cycle (Total)
system.switch_cpus_10.fetch.rateDist::8         25731     19.38%    100.00% # Number of instructions fetched each cycle (Total)
system.switch_cpus_10.fetch.rateDist::overflows            0      0.00%    100.00% # Number of instructions fetched each cycle (Total)
system.switch_cpus_10.fetch.rateDist::min_value            0                       # Number of instructions fetched each cycle (Total)
system.switch_cpus_10.fetch.rateDist::max_value            8                       # Number of instructions fetched each cycle (Total)
system.switch_cpus_10.fetch.rateDist::total       132805                       # Number of instructions fetched each cycle (Total)
system.switch_cpus_10.fp_regfile_reads           2276                       # number of floating regfile reads
system.switch_cpus_10.fp_regfile_writes          1770                       # number of floating regfile writes
system.switch_cpus_10.idleCycles                53191                       # Total number of cycles that the CPU has spent unscheduled due to idling
system.switch_cpus_10.iew.branchMispredicts         2340                       # Number of branch mispredicts detected at execute
system.switch_cpus_10.iew.exec_branches         29190                       # Number of branches executed
system.switch_cpus_10.iew.exec_nop                  0                       # number of nop insts executed
system.switch_cpus_10.iew.exec_rate          1.318614                       # Inst execution rate
system.switch_cpus_10.iew.exec_refs             53691                       # number of memory reference insts executed
system.switch_cpus_10.iew.exec_stores           20656                       # Number of stores executed
system.switch_cpus_10.iew.exec_swp                  0                       # number of swp insts executed
system.switch_cpus_10.iew.iewBlockCycles        15707                       # Number of cycles IEW is blocking
system.switch_cpus_10.iew.iewDispLoadInsts        34820                       # Number of dispatched load instructions
system.switch_cpus_10.iew.iewDispNonSpecInsts          168                       # Number of dispatched non-speculative instructions
system.switch_cpus_10.iew.iewDispSquashedInsts         1197                       # Number of squashed instructions skipped by dispatch
system.switch_cpus_10.iew.iewDispStoreInsts        22313                       # Number of dispatched store instructions
system.switch_cpus_10.iew.iewDispatchedInsts       260709                       # Number of instructions dispatched to IQ
system.switch_cpus_10.iew.iewExecLoadInsts        33035                       # Number of load instructions executed
system.switch_cpus_10.iew.iewExecSquashedInsts         3497                       # Number of squashed instructions skipped in execute
system.switch_cpus_10.iew.iewExecutedInsts       245257                       # Number of executed instructions
system.switch_cpus_10.iew.iewIQFullEvents           96                       # Number of times the IQ has become full, causing a stall
system.switch_cpus_10.iew.iewIdleCycles             0                       # Number of cycles IEW is idle
system.switch_cpus_10.iew.iewLSQFullEvents          533                       # Number of times the LSQ has become full, causing a stall
system.switch_cpus_10.iew.iewSquashCycles         2001                       # Number of cycles IEW is squashing
system.switch_cpus_10.iew.iewUnblockCycles          662                       # Number of cycles IEW is unblocking
system.switch_cpus_10.iew.lsq.thread0.blockedLoads            0                       # Number of blocked loads due to partial load-store forwarding
system.switch_cpus_10.iew.lsq.thread0.cacheBlocked           20                       # Number of times an access to memory failed due to the cache being blocked
system.switch_cpus_10.iew.lsq.thread0.forwLoads         4815                       # Number of loads that had data forwarded from stores
system.switch_cpus_10.iew.lsq.thread0.ignoredResponses           29                       # Number of memory responses ignored because the instruction is squashed
system.switch_cpus_10.iew.lsq.thread0.invAddrLoads            0                       # Number of loads ignored due to an invalid address
system.switch_cpus_10.iew.lsq.thread0.invAddrSwpfs            0                       # Number of software prefetches ignored due to an invalid address
system.switch_cpus_10.iew.lsq.thread0.memOrderViolation           36                       # Number of memory ordering violations
system.switch_cpus_10.iew.lsq.thread0.rescheduledLoads          154                       # Number of loads that were rescheduled
system.switch_cpus_10.iew.lsq.thread0.squashedLoads         5939                       # Number of loads squashed
system.switch_cpus_10.iew.lsq.thread0.squashedStores         3459                       # Number of stores squashed
system.switch_cpus_10.iew.memOrderViolationEvents           36                       # Number of memory order violations
system.switch_cpus_10.iew.predictedNotTakenIncorrect         2132                       # Number of branches that were predicted not taken incorrectly
system.switch_cpus_10.iew.predictedTakenIncorrect          208                       # Number of branches that were predicted taken incorrectly
system.switch_cpus_10.iew.wb_consumers         252690                       # num instructions consuming a value
system.switch_cpus_10.iew.wb_count             242906                       # cumulative count of insts written-back
system.switch_cpus_10.iew.wb_fanout          0.667810                       # average fanout of values written-back
system.switch_cpus_10.iew.wb_producers         168749                       # num instructions producing a value
system.switch_cpus_10.iew.wb_rate            1.305974                       # insts written-back per cycle
system.switch_cpus_10.iew.wb_sent              243337                       # cumulative count of insts sent to commit
system.switch_cpus_10.int_regfile_reads        351394                       # number of integer regfile reads
system.switch_cpus_10.int_regfile_writes       191172                       # number of integer regfile writes
system.switch_cpus_10.ipc                    0.613298                       # IPC: Instructions Per Cycle
system.switch_cpus_10.ipc_total              0.613298                       # IPC: Total IPC of All Threads
system.switch_cpus_10.iq.FU_type_0::No_OpClass          928      0.37%      0.37% # Type of FU issued
system.switch_cpus_10.iq.FU_type_0::IntAlu       192008     77.19%     77.56% # Type of FU issued
system.switch_cpus_10.iq.FU_type_0::IntMult          253      0.10%     77.66% # Type of FU issued
system.switch_cpus_10.iq.FU_type_0::IntDiv           80      0.03%     77.69% # Type of FU issued
system.switch_cpus_10.iq.FU_type_0::FloatAdd          255      0.10%     77.80% # Type of FU issued
system.switch_cpus_10.iq.FU_type_0::FloatCmp            0      0.00%     77.80% # Type of FU issued
system.switch_cpus_10.iq.FU_type_0::FloatCvt          101      0.04%     77.84% # Type of FU issued
system.switch_cpus_10.iq.FU_type_0::FloatMult            0      0.00%     77.84% # Type of FU issued
system.switch_cpus_10.iq.FU_type_0::FloatMultAcc            0      0.00%     77.84% # Type of FU issued
system.switch_cpus_10.iq.FU_type_0::FloatDiv            0      0.00%     77.84% # Type of FU issued
system.switch_cpus_10.iq.FU_type_0::FloatMisc            0      0.00%     77.84% # Type of FU issued
system.switch_cpus_10.iq.FU_type_0::FloatSqrt            0      0.00%     77.84% # Type of FU issued
system.switch_cpus_10.iq.FU_type_0::SimdAdd           36      0.01%     77.85% # Type of FU issued
system.switch_cpus_10.iq.FU_type_0::SimdAddAcc            0      0.00%     77.85% # Type of FU issued
system.switch_cpus_10.iq.FU_type_0::SimdAlu          128      0.05%     77.90% # Type of FU issued
system.switch_cpus_10.iq.FU_type_0::SimdCmp            0      0.00%     77.90% # Type of FU issued
system.switch_cpus_10.iq.FU_type_0::SimdCvt          130      0.05%     77.96% # Type of FU issued
system.switch_cpus_10.iq.FU_type_0::SimdMisc          184      0.07%     78.03% # Type of FU issued
system.switch_cpus_10.iq.FU_type_0::SimdMult            0      0.00%     78.03% # Type of FU issued
system.switch_cpus_10.iq.FU_type_0::SimdMultAcc            0      0.00%     78.03% # Type of FU issued
system.switch_cpus_10.iq.FU_type_0::SimdShift           52      0.02%     78.05% # Type of FU issued
system.switch_cpus_10.iq.FU_type_0::SimdShiftAcc            0      0.00%     78.05% # Type of FU issued
system.switch_cpus_10.iq.FU_type_0::SimdDiv            0      0.00%     78.05% # Type of FU issued
system.switch_cpus_10.iq.FU_type_0::SimdSqrt            0      0.00%     78.05% # Type of FU issued
system.switch_cpus_10.iq.FU_type_0::SimdFloatAdd            0      0.00%     78.05% # Type of FU issued
system.switch_cpus_10.iq.FU_type_0::SimdFloatAlu            0      0.00%     78.05% # Type of FU issued
system.switch_cpus_10.iq.FU_type_0::SimdFloatCmp            0      0.00%     78.05% # Type of FU issued
system.switch_cpus_10.iq.FU_type_0::SimdFloatCvt            0      0.00%     78.05% # Type of FU issued
system.switch_cpus_10.iq.FU_type_0::SimdFloatDiv            0      0.00%     78.05% # Type of FU issued
system.switch_cpus_10.iq.FU_type_0::SimdFloatMisc            0      0.00%     78.05% # Type of FU issued
system.switch_cpus_10.iq.FU_type_0::SimdFloatMult            0      0.00%     78.05% # Type of FU issued
system.switch_cpus_10.iq.FU_type_0::SimdFloatMultAcc            0      0.00%     78.05% # Type of FU issued
system.switch_cpus_10.iq.FU_type_0::SimdFloatSqrt            0      0.00%     78.05% # Type of FU issued
system.switch_cpus_10.iq.FU_type_0::SimdReduceAdd            0      0.00%     78.05% # Type of FU issued
system.switch_cpus_10.iq.FU_type_0::SimdReduceAlu            0      0.00%     78.05% # Type of FU issued
system.switch_cpus_10.iq.FU_type_0::SimdReduceCmp            0      0.00%     78.05% # Type of FU issued
system.switch_cpus_10.iq.FU_type_0::SimdFloatReduceAdd            0      0.00%     78.05% # Type of FU issued
system.switch_cpus_10.iq.FU_type_0::SimdFloatReduceCmp            0      0.00%     78.05% # Type of FU issued
system.switch_cpus_10.iq.FU_type_0::SimdAes            0      0.00%     78.05% # Type of FU issued
system.switch_cpus_10.iq.FU_type_0::SimdAesMix            0      0.00%     78.05% # Type of FU issued
system.switch_cpus_10.iq.FU_type_0::SimdSha1Hash            0      0.00%     78.05% # Type of FU issued
system.switch_cpus_10.iq.FU_type_0::SimdSha1Hash2            0      0.00%     78.05% # Type of FU issued
system.switch_cpus_10.iq.FU_type_0::SimdSha256Hash            0      0.00%     78.05% # Type of FU issued
system.switch_cpus_10.iq.FU_type_0::SimdSha256Hash2            0      0.00%     78.05% # Type of FU issued
system.switch_cpus_10.iq.FU_type_0::SimdShaSigma2            0      0.00%     78.05% # Type of FU issued
system.switch_cpus_10.iq.FU_type_0::SimdShaSigma3            0      0.00%     78.05% # Type of FU issued
system.switch_cpus_10.iq.FU_type_0::SimdPredAlu            0      0.00%     78.05% # Type of FU issued
system.switch_cpus_10.iq.FU_type_0::MemRead        32289     12.98%     91.03% # Type of FU issued
system.switch_cpus_10.iq.FU_type_0::MemWrite        19997      8.04%     99.07% # Type of FU issued
system.switch_cpus_10.iq.FU_type_0::FloatMemRead         1277      0.51%     99.58% # Type of FU issued
system.switch_cpus_10.iq.FU_type_0::FloatMemWrite         1036      0.42%    100.00% # Type of FU issued
system.switch_cpus_10.iq.FU_type_0::IprAccess            0      0.00%    100.00% # Type of FU issued
system.switch_cpus_10.iq.FU_type_0::InstPrefetch            0      0.00%    100.00% # Type of FU issued
system.switch_cpus_10.iq.FU_type_0::total       248754                       # Type of FU issued
system.switch_cpus_10.iq.fp_alu_accesses         3318                       # Number of floating point alu accesses
system.switch_cpus_10.iq.fp_inst_queue_reads         6598                       # Number of floating instruction queue reads
system.switch_cpus_10.iq.fp_inst_queue_wakeup_accesses         2858                       # Number of floating instruction queue wakeup accesses
system.switch_cpus_10.iq.fp_inst_queue_writes         4446                       # Number of floating instruction queue writes
system.switch_cpus_10.iq.fu_busy_cnt             2993                       # FU busy when requested
system.switch_cpus_10.iq.fu_busy_rate        0.012032                       # FU busy rate (busy events/executed inst)
system.switch_cpus_10.iq.fu_full::No_OpClass            0      0.00%      0.00% # attempts to use FU when none available
system.switch_cpus_10.iq.fu_full::IntAlu         2618     87.47%     87.47% # attempts to use FU when none available
system.switch_cpus_10.iq.fu_full::IntMult            0      0.00%     87.47% # attempts to use FU when none available
system.switch_cpus_10.iq.fu_full::IntDiv            0      0.00%     87.47% # attempts to use FU when none available
system.switch_cpus_10.iq.fu_full::FloatAdd            0      0.00%     87.47% # attempts to use FU when none available
system.switch_cpus_10.iq.fu_full::FloatCmp            0      0.00%     87.47% # attempts to use FU when none available
system.switch_cpus_10.iq.fu_full::FloatCvt            0      0.00%     87.47% # attempts to use FU when none available
system.switch_cpus_10.iq.fu_full::FloatMult            0      0.00%     87.47% # attempts to use FU when none available
system.switch_cpus_10.iq.fu_full::FloatMultAcc            0      0.00%     87.47% # attempts to use FU when none available
system.switch_cpus_10.iq.fu_full::FloatDiv            0      0.00%     87.47% # attempts to use FU when none available
system.switch_cpus_10.iq.fu_full::FloatMisc            0      0.00%     87.47% # attempts to use FU when none available
system.switch_cpus_10.iq.fu_full::FloatSqrt            0      0.00%     87.47% # attempts to use FU when none available
system.switch_cpus_10.iq.fu_full::SimdAdd            0      0.00%     87.47% # attempts to use FU when none available
system.switch_cpus_10.iq.fu_full::SimdAddAcc            0      0.00%     87.47% # attempts to use FU when none available
system.switch_cpus_10.iq.fu_full::SimdAlu            0      0.00%     87.47% # attempts to use FU when none available
system.switch_cpus_10.iq.fu_full::SimdCmp            0      0.00%     87.47% # attempts to use FU when none available
system.switch_cpus_10.iq.fu_full::SimdCvt            7      0.23%     87.70% # attempts to use FU when none available
system.switch_cpus_10.iq.fu_full::SimdMisc            0      0.00%     87.70% # attempts to use FU when none available
[...]
system.cpu1.l2cache.tags.occ_percent::.cpu1.data     0.000005                       # Average percentage of cache occupancy
system.cpu1.l2cache.tags.occ_percent::.cpu1.dcache.prefetcher     0.000028                       # Average percentage of cache occupancy
system.cpu1.l2cache.tags.occ_percent::.switch_cpus1.inst     0.000174                       # Average percentage of cache occupancy
system.cpu1.l2cache.tags.occ_percent::.switch_cpus1.data     0.002749                       # Average percentage of cache occupancy
system.cpu1.l2cache.tags.occ_percent::.switch_cpus_11.inst     0.000047                       # Average percentage of cache occupancy
system.cpu1.l2cache.tags.occ_percent::.switch_cpus_11.data     0.016258                       # Average percentage of cache occupancy
system.cpu1.l2cache.tags.occ_percent::total     0.019262                       # Average percentage of cache occupancy
system.cpu1.l2cache.tags.occ_task_id_blocks::1022            6                       # Occupied blocks per task id
system.cpu1.l2cache.tags.occ_task_id_blocks::1024         4090                       # Occupied blocks per task id
system.cpu1.l2cache.tags.age_task_id_blocks_1022::3            2                       # Occupied blocks per task id
system.cpu1.l2cache.tags.age_task_id_blocks_1022::4            4                       # Occupied blocks per task id
system.cpu1.l2cache.tags.age_task_id_blocks_1024::0           14                       # Occupied blocks per task id
system.cpu1.l2cache.tags.age_task_id_blocks_1024::1           59                       # Occupied blocks per task id
system.cpu1.l2cache.tags.age_task_id_blocks_1024::2         1028                       # Occupied blocks per task id
system.cpu1.l2cache.tags.age_task_id_blocks_1024::3         2480                       # Occupied blocks per task id
system.cpu1.l2cache.tags.age_task_id_blocks_1024::4          509                       # Occupied blocks per task id
system.cpu1.l2cache.tags.occ_task_id_percent::1022     0.001465                       # Percentage of cache occupancy per task id
system.cpu1.l2cache.tags.occ_task_id_percent::1024     0.998535                       # Percentage of cache occupancy per task id
system.cpu1.l2cache.tags.tag_accesses         1845672                       # Number of tag accesses
system.cpu1.l2cache.tags.data_accesses        1845672                       # Number of data accesses
system.cpu1.toL2Bus.pwrStateResidencyTicks::UNDEFINED 1321363889865                       # Cumulative time (in ticks) in various power states
system.cpu1.toL2Bus.trans_dist::ReadResp        57000                       # Transaction distribution
system.cpu1.toL2Bus.trans_dist::WritebackDirty          186                       # Transaction distribution
system.cpu1.toL2Bus.trans_dist::CleanEvict        82648                       # Transaction distribution
system.cpu1.toL2Bus.trans_dist::ReadExReq          148                       # Transaction distribution
system.cpu1.toL2Bus.trans_dist::ReadExResp          148                       # Transaction distribution
system.cpu1.toL2Bus.trans_dist::ReadCleanReq          285                       # Transaction distribution
system.cpu1.toL2Bus.trans_dist::ReadSharedReq        56715                       # Transaction distribution
system.cpu1.toL2Bus.pkt_count_system.cpu1.icache.mem_side::system.cpu1.l2cache.cpu_side          570                       # Packet count per connected master and slave (bytes)
system.cpu1.toL2Bus.pkt_count_system.cpu1.dcache.mem_side::system.cpu1.l2cache.cpu_side       170077                       # Packet count per connected master and slave (bytes)
system.cpu1.toL2Bus.pkt_count::total           170647                       # Packet count per connected master and slave (bytes)
system.cpu1.toL2Bus.pkt_size_system.cpu1.icache.mem_side::system.cpu1.l2cache.cpu_side        18240                       # Cumulative packet size per connected master and slave (bytes)
system.cpu1.toL2Bus.pkt_size_system.cpu1.dcache.mem_side::system.cpu1.l2cache.cpu_side      3650624                       # Cumulative packet size per connected master and slave (bytes)
system.cpu1.toL2Bus.pkt_size::total           3668864                       # Cumulative packet size per connected master and slave (bytes)
system.cpu1.toL2Bus.snoops                      26483                       # Total snoops (count)
system.cpu1.toL2Bus.snoopTraffic                  512                       # Total snoop traffic (bytes)
system.cpu1.toL2Bus.snoop_fanout::samples        83631                       # Request fanout histogram
system.cpu1.toL2Bus.snoop_fanout::mean       0.006433                       # Request fanout histogram
system.cpu1.toL2Bus.snoop_fanout::stdev      0.079948                       # Request fanout histogram
system.cpu1.toL2Bus.snoop_fanout::underflows            0      0.00%      0.00% # Request fanout histogram
system.cpu1.toL2Bus.snoop_fanout::0             83093     99.36%     99.36% # Request fanout histogram
system.cpu1.toL2Bus.snoop_fanout::1               538      0.64%    100.00% # Request fanout histogram
system.cpu1.toL2Bus.snoop_fanout::2                 0      0.00%    100.00% # Request fanout histogram
system.cpu1.toL2Bus.snoop_fanout::3                 0      0.00%    100.00% # Request fanout histogram
system.cpu1.toL2Bus.snoop_fanout::4                 0      0.00%    100.00% # Request fanout histogram
system.cpu1.toL2Bus.snoop_fanout::overflows            0      0.00%    100.00% # Request fanout histogram
system.cpu1.toL2Bus.snoop_fanout::min_value            0                       # Request fanout histogram
system.cpu1.toL2Bus.snoop_fanout::max_value            1                       # Request fanout histogram
system.cpu1.toL2Bus.snoop_fanout::total         83631                       # Request fanout histogram
system.cpu1.toL2Bus.reqLayer0.occupancy      47512477                       # Layer occupancy (ticks)
system.cpu1.toL2Bus.reqLayer0.utilization          0.2                       # Layer utilization (%)
system.cpu1.toL2Bus.respLayer1.occupancy     71134362                       # Layer occupancy (ticks)
system.cpu1.toL2Bus.respLayer1.utilization          0.3                       # Layer utilization (%)
system.cpu1.toL2Bus.respLayer0.occupancy       355284                       # Layer occupancy (ticks)
system.cpu1.toL2Bus.respLayer0.utilization          0.0                       # Layer utilization (%)
system.switch_cpus_10.numPwrStateTransitions            1                       # Number of power state transitions
system.switch_cpus_10.pwrStateClkGateDist::samples            1                       # Distribution of time spent in the clock gated state
system.switch_cpus_10.pwrStateClkGateDist::mean  25624923552                       # Distribution of time spent in the clock gated state
system.switch_cpus_10.pwrStateClkGateDist::1000-5e+10            1    100.00%    100.00% # Distribution of time spent in the clock gated state
system.switch_cpus_10.pwrStateClkGateDist::min_value  25624923552                       # Distribution of time spent in the clock gated state
system.switch_cpus_10.pwrStateClkGateDist::max_value  25624923552                       # Distribution of time spent in the clock gated state
system.switch_cpus_10.pwrStateClkGateDist::total            1                       # Distribution of time spent in the clock gated state
system.switch_cpus_10.pwrStateResidencyTicks::CLK_GATED  25624923552                       # Cumulative time (in ticks) in various power states
system.switch_cpus_10.pwrStateResidencyTicks::OFF   2387258697                       # Cumulative time (in ticks) in various power states
system.switch_cpus_10.dtb.walker.pwrStateResidencyTicks::UNDEFINED 1321363889865                       # Cumulative time (in ticks) in various power states
system.switch_cpus_10.itb.walker.pwrStateResidencyTicks::UNDEFINED 1321363889865                       # Cumulative time (in ticks) in various power states
system.switch_cpus_11.pwrStateResidencyTicks::OFF  28012182249                       # Cumulative time (in ticks) in various power states
system.switch_cpus_11.dtb.walker.pwrStateResidencyTicks::UNDEFINED 1321363889865                       # Cumulative time (in ticks) in various power states
system.switch_cpus_11.itb.walker.pwrStateResidencyTicks::UNDEFINED 1321363889865                       # Cumulative time (in ticks) in various power states
system.cpu_voltage_domain.voltage                   1                       # Voltage in Volts
system.switch_cpus1.numPwrStateTransitions            1                       # Number of power state transitions
system.switch_cpus1.pwrStateResidencyTicks::UNDEFINED 1293351707616                       # Cumulative time (in ticks) in various power states
system.switch_cpus1.pwrStateResidencyTicks::OFF  28012182249                       # Cumulative time (in ticks) in various power states
system.switch_cpus1.dtb.walker.pwrStateResidencyTicks::UNDEFINED 1321363889865                       # Cumulative time (in ticks) in various power states
system.switch_cpus1.itb.walker.pwrStateResidencyTicks::UNDEFINED 1321363889865                       # Cumulative time (in ticks) in various power states
system.mem_ctrls.pwrStateResidencyTicks::UNDEFINED 1321363889865                       # Cumulative time (in ticks) in various power states
system.mem_ctrls.bytes_read::.cpu0.inst            64                       # Number of bytes read from this memory
system.mem_ctrls.bytes_read::.cpu0.data            64                       # Number of bytes read from this memory
system.mem_ctrls.bytes_read::.cpu0.dcache.prefetcher         3520                       # Number of bytes read from this memory
system.mem_ctrls.bytes_read::.cpu1.inst            64                       # Number of bytes read from this memory
system.mem_ctrls.bytes_read::.cpu1.data            64                       # Number of bytes read from this memory
system.mem_ctrls.bytes_read::.cpu1.dcache.prefetcher          832                       # Number of bytes read from this memory
system.mem_ctrls.bytes_read::.switch_cpus0.inst         9024                       # Number of bytes read from this memory
system.mem_ctrls.bytes_read::.switch_cpus0.data         9280                       # Number of bytes read from this memory
system.mem_ctrls.bytes_read::.switch_cpus1.inst        12672                       # Number of bytes read from this memory
system.mem_ctrls.bytes_read::.switch_cpus1.data        76672                       # Number of bytes read from this memory
system.mem_ctrls.bytes_read::.switch_cpus_10.inst        30976                       # Number of bytes read from this memory
system.mem_ctrls.bytes_read::.switch_cpus_10.data        21696                       # Number of bytes read from this memory
system.mem_ctrls.bytes_read::.switch_cpus_11.inst         5504                       # Number of bytes read from this memory
system.mem_ctrls.bytes_read::.switch_cpus_11.data      1844800                       # Number of bytes read from this memory
system.mem_ctrls.bytes_read::total            2015232                       # Number of bytes read from this memory
system.mem_ctrls.bytes_inst_read::.cpu0.inst           64                       # Number of instructions bytes read from this memory
system.mem_ctrls.bytes_inst_read::.cpu1.inst           64                       # Number of instructions bytes read from this memory
system.mem_ctrls.bytes_inst_read::.switch_cpus0.inst         9024                       # Number of instructions bytes read from this memory
system.mem_ctrls.bytes_inst_read::.switch_cpus1.inst        12672                       # Number of instructions bytes read from this memory
system.mem_ctrls.bytes_inst_read::.switch_cpus_10.inst        30976                       # Number of instructions bytes read from this memory
system.mem_ctrls.bytes_inst_read::.switch_cpus_11.inst         5504                       # Number of instructions bytes read from this memory
system.mem_ctrls.bytes_inst_read::total         58304                       # Number of instructions bytes read from this memory
system.mem_ctrls.bytes_written::.switch_cpus1.data          128                       # Number of bytes written to this memory
system.mem_ctrls.bytes_written::total             128                       # Number of bytes written to this memory
system.mem_ctrls.num_reads::.cpu0.inst              1                       # Number of read requests responded to by this memory
system.mem_ctrls.num_reads::.cpu0.data              1                       # Number of read requests responded to by this memory
system.mem_ctrls.num_reads::.cpu0.dcache.prefetcher           55                       # Number of read requests responded to by this memory
system.mem_ctrls.num_reads::.cpu1.inst              1                       # Number of read requests responded to by this memory
system.mem_ctrls.num_reads::.cpu1.data              1                       # Number of read requests responded to by this memory
system.mem_ctrls.num_reads::.cpu1.dcache.prefetcher           13                       # Number of read requests responded to by this memory
system.mem_ctrls.num_reads::.switch_cpus0.inst          141                       # Number of read requests responded to by this memory
system.mem_ctrls.num_reads::.switch_cpus0.data          145                       # Number of read requests responded to by this memory
system.mem_ctrls.num_reads::.switch_cpus1.inst          198                       # Number of read requests responded to by this memory
system.mem_ctrls.num_reads::.switch_cpus1.data         1198                       # Number of read requests responded to by this memory
system.mem_ctrls.num_reads::.switch_cpus_10.inst          484                       # Number of read requests responded to by this memory
system.mem_ctrls.num_reads::.switch_cpus_10.data          339                       # Number of read requests responded to by this memory
system.mem_ctrls.num_reads::.switch_cpus_11.inst           86                       # Number of read requests responded to by this memory
system.mem_ctrls.num_reads::.switch_cpus_11.data        28825                       # Number of read requests responded to by this memory
system.mem_ctrls.num_reads::total               31488                       # Number of read requests responded to by this memory
system.mem_ctrls.num_writes::.switch_cpus1.data            2                       # Number of write requests responded to by this memory
system.mem_ctrls.num_writes::total                  2                       # Number of write requests responded to by this memory
system.mem_ctrls.bw_read::.cpu0.inst             2285                       # Total read bandwidth from this memory (bytes/s)
system.mem_ctrls.bw_read::.cpu0.data             2285                       # Total read bandwidth from this memory (bytes/s)
system.mem_ctrls.bw_read::.cpu0.dcache.prefetcher       125660                       # Total read bandwidth from this memory (bytes/s)
system.mem_ctrls.bw_read::.cpu1.inst             2285                       # Total read bandwidth from this memory (bytes/s)
system.mem_ctrls.bw_read::.cpu1.data             2285                       # Total read bandwidth from this memory (bytes/s)
system.mem_ctrls.bw_read::.cpu1.dcache.prefetcher        29701                       # Total read bandwidth from this memory (bytes/s)
system.mem_ctrls.bw_read::.switch_cpus0.inst       322146                       # Total read bandwidth from this memory (bytes/s)
system.mem_ctrls.bw_read::.switch_cpus0.data       331284                       # Total read bandwidth from this memory (bytes/s)
system.mem_ctrls.bw_read::.switch_cpus1.inst       452375                       # Total read bandwidth from this memory (bytes/s)
system.mem_ctrls.bw_read::.switch_cpus1.data      2737095                       # Total read bandwidth from this memory (bytes/s)
system.mem_ctrls.bw_read::.switch_cpus_10.inst      1105805                       # Total read bandwidth from this memory (bytes/s)
system.mem_ctrls.bw_read::.switch_cpus_10.data       774520                       # Total read bandwidth from this memory (bytes/s)
system.mem_ctrls.bw_read::.switch_cpus_11.inst       196486                       # Total read bandwidth from this memory (bytes/s)
system.mem_ctrls.bw_read::.switch_cpus_11.data     65857061                       # Total read bandwidth from this memory (bytes/s)
system.mem_ctrls.bw_read::total              71941271                       # Total read bandwidth from this memory (bytes/s)
system.mem_ctrls.bw_inst_read::.cpu0.inst         2285                       # Instruction read bandwidth from this memory (bytes/s)
system.mem_ctrls.bw_inst_read::.cpu1.inst         2285                       # Instruction read bandwidth from this memory (bytes/s)
system.mem_ctrls.bw_inst_read::.switch_cpus0.inst       322146                       # Instruction read bandwidth from this memory (bytes/s)
system.mem_ctrls.bw_inst_read::.switch_cpus1.inst       452375                       # Instruction read bandwidth from this memory (bytes/s)
system.mem_ctrls.bw_inst_read::.switch_cpus_10.inst      1105805                       # Instruction read bandwidth from this memory (bytes/s)
system.mem_ctrls.bw_inst_read::.switch_cpus_11.inst       196486                       # Instruction read bandwidth from this memory (bytes/s)
system.mem_ctrls.bw_inst_read::total          2081380                       # Instruction read bandwidth from this memory (bytes/s)
system.mem_ctrls.bw_write::.switch_cpus1.data         4569                       # Write bandwidth from this memory (bytes/s)
system.mem_ctrls.bw_write::total                 4569                       # Write bandwidth from this memory (bytes/s)
system.mem_ctrls.bw_total::.cpu0.inst            2285                       # Total bandwidth to/from this memory (bytes/s)
system.mem_ctrls.bw_total::.cpu0.data            2285                       # Total bandwidth to/from this memory (bytes/s)
system.mem_ctrls.bw_total::.cpu0.dcache.prefetcher       125660                       # Total bandwidth to/from this memory (bytes/s)
system.mem_ctrls.bw_total::.cpu1.inst            2285                       # Total bandwidth to/from this memory (bytes/s)
system.mem_ctrls.bw_total::.cpu1.data            2285                       # Total bandwidth to/from this memory (bytes/s)
system.mem_ctrls.bw_total::.cpu1.dcache.prefetcher        29701                       # Total bandwidth to/from this memory (bytes/s)
system.mem_ctrls.bw_total::.switch_cpus0.inst       322146                       # Total bandwidth to/from this memory (bytes/s)
system.mem_ctrls.bw_total::.switch_cpus0.data       331284                       # Total bandwidth to/from this memory (bytes/s)
system.mem_ctrls.bw_total::.switch_cpus1.inst       452375                       # Total bandwidth to/from this memory (bytes/s)
system.mem_ctrls.bw_total::.switch_cpus1.data      2741664                       # Total bandwidth to/from this memory (bytes/s)
system.mem_ctrls.bw_total::.switch_cpus_10.inst      1105805                       # Total bandwidth to/from this memory (bytes/s)
system.mem_ctrls.bw_total::.switch_cpus_10.data       774520                       # Total bandwidth to/from this memory (bytes/s)
system.mem_ctrls.bw_total::.switch_cpus_11.inst       196486                       # Total bandwidth to/from this memory (bytes/s)
system.mem_ctrls.bw_total::.switch_cpus_11.data     65857061                       # Total bandwidth to/from this memory (bytes/s)
system.mem_ctrls.bw_total::total             71945841                       # Total bandwidth to/from this memory (bytes/s)
system.cpu_clk_domain.clock                       417                       # Clock period in ticks

---------- End Simulation Statistics   ----------
