
---------- Begin Simulation Statistics ----------
final_tick                               1321357219116                       # Number of ticks from beginning of simulation (restored from checkpoints and never reset)
host_inst_rate                                 122920                       # Simulator instruction rate (inst/s)
host_mem_usage                                4573236                       # Number of bytes of host memory used
host_op_rate                                   248681                       # Simulator op (including micro ops) rate (op/s)
host_seconds                                   423.52                       # Real time elapsed on the host
host_tick_rate                               66124850                       # Simulator tick rate (ticks/s)
sim_freq                                 1000000000000                       # Frequency of simulated ticks
sim_insts                                    52059801                       # Number of instructions simulated
sim_ops                                     105322636                       # Number of ops (including micro ops) simulated
sim_seconds                                  0.028006                       # Number of seconds simulated
sim_ticks                                 28005511500                       # Number of ticks simulated
system.cpu0.committedInsts                          2                       # Number of instructions committed
system.cpu0.committedOps                            3                       # Number of ops (including micro ops) committed
system.cpu0.dtb.rdAccesses                          0                       # TLB accesses on read requests
system.cpu0.dtb.rdMisses                            0                       # TLB misses on read requests
system.cpu0.dtb.wrAccesses                          1                       # TLB accesses on write requests
system.cpu0.dtb.wrMisses                            0                       # TLB misses on write requests
system.cpu0.idle_fraction                           0                       # Percentage of idle cycles
system.cpu0.itb.rdAccesses                          0                       # TLB accesses on read requests
system.cpu0.itb.rdMisses                            0                       # TLB misses on read requests
system.cpu0.itb.wrAccesses                          2                       # TLB accesses on write requests
system.cpu0.itb.wrMisses                            0                       # TLB misses on write requests
system.cpu0.not_idle_fraction                       1                       # Percentage of non-idle cycles
system.cpu0.numCycles                               3                       # number of cpu cycles simulated
system.cpu0.numWorkItemsCompleted                   0                       # number of work items this cpu completed
system.cpu0.numWorkItemsStarted                     0                       # number of work items this cpu started
system.cpu0.num_busy_cycles                         3                       # Number of busy cycles
system.cpu0.num_cc_register_reads                   1                       # number of times the CC registers were read
system.cpu0.num_cc_register_writes                  2                       # number of times the CC registers were written
system.cpu0.num_conditional_control_insts            0                       # number of instructions that are conditional controls
system.cpu0.num_fp_alu_accesses                     0                       # Number of float alu accesses
system.cpu0.num_fp_insts                            0                       # number of float instructions
system.cpu0.num_fp_register_reads                   0                       # number of times the floating registers were read
system.cpu0.num_fp_register_writes                  0                       # number of times the floating registers were written
system.cpu0.num_func_calls                          0                       # number of times a function call or return occured
system.cpu0.num_idle_cycles                         0                       # Number of idle cycles
system.cpu0.num_int_alu_accesses                    3                       # Number of integer alu accesses
system.cpu0.num_int_insts                           3                       # number of integer instructions
system.cpu0.num_int_register_reads                  7                       # number of times the integer registers were read
system.cpu0.num_int_register_writes                 2                       # number of times the integer registers were written
system.cpu0.num_load_insts                          0                       # Number of load instructions
system.cpu0.num_mem_refs                            1                       # number of memory refs
system.cpu0.num_store_insts                         1                       # Number of store instructions
system.cpu0.num_vec_alu_accesses                    0                       # Number of vector alu accesses
system.cpu0.num_vec_insts                           0                       # number of vector instructions
system.cpu0.num_vec_register_reads                  0                       # number of times the vector registers were read
system.cpu0.num_vec_register_writes                 0                       # number of times the vector registers were written
system.cpu0.op_class::No_OpClass                    0      0.00%      0.00% # Class of executed instruction
system.cpu0.op_class::IntAlu                        2     66.67%     66.67% # Class of executed instruction
system.cpu0.op_class::IntMult                       0      0.00%     66.67% # Class of executed instruction
system.cpu0.op_class::IntDiv                        0      0.00%     66.67% # Class of executed instruction
system.cpu0.op_class::FloatAdd                      0      0.00%     66.67% # Class of executed instruction
system.cpu0.op_class::FloatCmp                      0      0.00%     66.67% # Class of executed instruction
system.cpu0.op_class::FloatCvt                      0      0.00%     66.67% # Class of executed instruction
system.cpu0.op_class::FloatMult                     0      0.00%     66.67% # Class of executed instruction
system.cpu0.op_class::FloatMultAcc                  0      0.00%     66.67% # Class of executed instruction
system.cpu0.op_class::FloatDiv                      0      0.00%     66.67% # Class of executed instruction
system.cpu0.op_class::FloatMisc                     0      0.00%     66.67% # Class of executed instruction
system.cpu0.op_class::FloatSqrt                     0      0.00%     66.67% # Class of executed instruction
system.cpu0.op_class::SimdAdd                       0      0.00%     66.67% # Class of executed instruction
system.cpu0.op_class::SimdAddAcc                    0      0.00%     66.67% # Class of executed instruction
system.cpu0.op_class::SimdAlu                       0      0.00%     66.67% # Class of executed instruction
system.cpu0.op_class::SimdCmp                       0      0.00%     66.67% # Class of executed instruction
system.cpu0.op_class::SimdCvt                       0      0.00%     66.67% # Class of executed instruction
system.cpu0.op_class::SimdMisc                      0      0.00%     66.67% # Class of executed instruction
system.cpu0.op_class::SimdMult                      0      0.00%     66.67% # Class of executed instruction
system.cpu0.op_class::SimdMultAcc                   0      0.00%     66.67% # Class of executed instruction
system.cpu0.op_class::SimdShift                     0      0.00%     66.67% # Class of executed instruction
system.cpu0.op_class::SimdShiftAcc                  0      0.00%     66.67% # Class of executed instruction
system.cpu0.op_class::SimdDiv                       0      0.00%     66.67% # Class of executed instruction
system.cpu0.op_class::SimdSqrt                      0      0.00%     66.67% # Class of executed instruction
system.cpu0.op_class::SimdFloatAdd                  0      0.00%     66.67% # Class of executed instruction
system.cpu0.op_class::SimdFloatAlu                  0      0.00%     66.67% # Class of executed instruction
system.cpu0.op_class::SimdFloatCmp                  0      0.00%     66.67% # Class of executed instruction
system.cpu0.op_class::SimdFloatCvt                  0      0.00%     66.67% # Class of executed instruction
system.cpu0.op_class::SimdFloatDiv                  0      0.00%     66.67% # Class of executed instruction
system.cpu0.op_class::SimdFloatMisc                 0      0.00%     66.67% # Class of executed instruction
system.cpu0.op_class::SimdFloatMult                 0      0.00%     66.67% # Class of executed instruction
system.cpu0.op_class::SimdFloatMultAcc              0      0.00%     66.67% # Class of executed instruction
system.cpu0.op_class::SimdFloatSqrt                 0      0.00%     66.67% # Class of executed instruction
system.cpu0.op_class::SimdReduceAdd                 0      0.00%     66.67% # Class of executed instruction
system.cpu0.op_class::SimdReduceAlu                 0      0.00%     66.67% # Class of executed instruction
system.cpu0.op_class::SimdReduceCmp                 0      0.00%     66.67% # Class of executed instruction
system.cpu0.op_class::SimdFloatReduceAdd            0      0.00%     66.67% # Class of executed instruction
system.cpu0.op_class::SimdFloatReduceCmp            0      0.00%     66.67% # Class of executed instruction
system.cpu0.op_class::SimdAes                       0      0.00%     66.67% # Class of executed instruction
system.cpu0.op_class::SimdAesMix                    0      0.00%     66.67% # Class of executed instruction
system.cpu0.op_class::SimdSha1Hash                  0      0.00%     66.67% # Class of executed instruction
system.cpu0.op_class::SimdSha1Hash2                 0      0.00%     66.67% # Class of executed instruction
system.cpu0.op_class::SimdSha256Hash                0      0.00%     66.67% # Class of executed instruction
system.cpu0.op_class::SimdSha256Hash2               0      0.00%     66.67% # Class of executed instruction
system.cpu0.op_class::SimdShaSigma2                 0      0.00%     66.67% # Class of executed instruction
system.cpu0.op_class::SimdShaSigma3                 0      0.00%     66.67% # Class of executed instruction
system.cpu0.op_class::SimdPredAlu                   0      0.00%     66.67% # Class of executed instruction
system.cpu0.op_class::MemRead                       0      0.00%     66.67% # Class of executed instruction
system.cpu0.op_class::MemWrite                      1     33.33%    100.00% # Class of executed instruction
system.cpu0.op_class::FloatMemRead                  0      0.00%    100.00% # Class of executed instruction
system.cpu0.op_class::FloatMemWrite                 0      0.00%    100.00% # Class of executed instruction
system.cpu0.op_class::IprAccess                     0      0.00%    100.00% # Class of executed instruction
system.cpu0.op_class::InstPrefetch                  0      0.00%    100.00% # Class of executed instruction
system.cpu0.op_class::total                         3                       # Class of executed instruction
system.cpu0.toL2Bus.snoop_filter.hit_multi_requests            3                       # Number of requests hitting in the snoop filter with multiple (>1) holders of the requested data.
system.cpu0.toL2Bus.snoop_filter.hit_multi_snoops            0                       # Number of snoops hitting in the snoop filter with multiple (>1) holders of the requested data.
system.cpu0.toL2Bus.snoop_filter.hit_single_requests          244                       # Number of requests hitting in the snoop filter with a single holder of the requested data.
system.cpu0.toL2Bus.snoop_filter.hit_single_snoops            0                       # Number of snoops hitting in the snoop filter with a single holder of the requested data.
system.cpu0.toL2Bus.snoop_filter.tot_requests         1407                       # Total number of requests made to the snoop filter.
system.cpu0.toL2Bus.snoop_filter.tot_snoops            0                       # Total number of snoops made to the snoop filter.
system.cpu0.toL3Bus.snoop_filter.hit_multi_requests            0                       # Number of requests hitting in the snoop filter with multiple (>1) holders of the requested data.
system.cpu0.toL3Bus.snoop_filter.hit_multi_snoops            0                       # Number of snoops hitting in the snoop filter with multiple (>1) holders of the requested data.
system.cpu0.toL3Bus.snoop_filter.hit_single_requests            0                       # Number of requests hitting in the snoop filter with a single holder of the requested data.
system.cpu0.toL3Bus.snoop_filter.hit_single_snoops            0                       # Number of snoops hitting in the snoop filter with a single holder of the requested data.
system.cpu0.toL3Bus.snoop_filter.tot_requests         1144                       # Total number of requests made to the snoop filter.
system.cpu0.toL3Bus.snoop_filter.tot_snoops            0                       # Total number of snoops made to the snoop filter.
system.cpu0.workload.numSyscalls                    7                       # Number of system calls
system.cpu1.Branches                                1                       # Number of branches fetched
system.cpu1.committedInsts                          1                       # Number of instructions committed
system.cpu1.committedOps                            5                       # Number of ops (including micro ops) committed
system.cpu1.dtb.rdAccesses                          0                       # TLB accesses on read requests
system.cpu1.dtb.rdMisses                            0                       # TLB misses on read requests
system.cpu1.dtb.wrAccesses                          1                       # TLB accesses on write requests
system.cpu1.dtb.wrMisses                            0                       # TLB misses on write requests
system.cpu1.idle_fraction                           0                       # Percentage of idle cycles
system.cpu1.itb.rdAccesses                          0                       # TLB accesses on read requests
system.cpu1.itb.rdMisses                            0                       # TLB misses on read requests
system.cpu1.itb.wrAccesses                          2                       # TLB accesses on write requests
system.cpu1.itb.wrMisses                            0                       # TLB misses on write requests
system.cpu1.not_idle_fraction                       1                       # Percentage of non-idle cycles
system.cpu1.numCycles                               6                       # number of cpu cycles simulated
system.cpu1.numWorkItemsCompleted                   0                       # number of work items this cpu completed
system.cpu1.numWorkItemsStarted                     0                       # number of work items this cpu started
system.cpu1.num_busy_cycles                         6                       # Number of busy cycles
system.cpu1.num_conditional_control_insts            0                       # number of instructions that are conditional controls
system.cpu1.num_fp_alu_accesses                     0                       # Number of float alu accesses
system.cpu1.num_fp_insts                            0                       # number of float instructions
system.cpu1.num_fp_register_reads                   0                       # number of times the floating registers were read
system.cpu1.num_fp_register_writes                  0                       # number of times the floating registers were written
system.cpu1.num_func_calls                          1                       # number of times a function call or return occured
system.cpu1.num_idle_cycles                         0                       # Number of idle cycles
system.cpu1.num_int_alu_accesses                    5                       # Number of integer alu accesses
system.cpu1.num_int_insts                           5                       # number of integer instructions
system.cpu1.num_int_register_reads                  9                       # number of times the integer registers were read
system.cpu1.num_int_register_writes                 3                       # number of times the integer registers were written
system.cpu1.num_load_insts                          0                       # Number of load instructions
system.cpu1.num_mem_refs                            1                       # number of memory refs
system.cpu1.num_store_insts                         1                       # Number of store instructions
system.cpu1.num_vec_alu_accesses                    0                       # Number of vector alu accesses
system.cpu1.num_vec_insts                           0                       # number of vector instructions
system.cpu1.num_vec_register_reads                  0                       # number of times the vector registers were read
system.cpu1.num_vec_register_writes                 0                       # number of times the vector registers were written
system.cpu1.op_class::No_OpClass                    0      0.00%      0.00% # Class of executed instruction
system.cpu1.op_class::IntAlu                        4     80.00%     80.00% # Class of executed instruction
system.cpu1.op_class::IntMult                       0      0.00%     80.00% # Class of executed instruction
system.cpu1.op_class::IntDiv                        0      0.00%     80.00% # Class of executed instruction
system.cpu1.op_class::FloatAdd                      0      0.00%     80.00% # Class of executed instruction
system.cpu1.op_class::FloatCmp                      0      0.00%     80.00% # Class of executed instruction
system.cpu1.op_class::FloatCvt                      0      0.00%     80.00% # Class of executed instruction
system.cpu1.op_class::FloatMult                     0      0.00%     80.00% # Class of executed instruction
system.cpu1.op_class::FloatMultAcc                  0      0.00%     80.00% # Class of executed instruction
system.cpu1.op_class::FloatDiv                      0      0.00%     80.00% # Class of executed instruction
system.cpu1.op_class::FloatMisc                     0      0.00%     80.00% # Class of executed instruction
system.cpu1.op_class::FloatSqrt                     0      0.00%     80.00% # Class of executed instruction
system.cpu1.op_class::SimdAdd                       0      0.00%     80.00% # Class of executed instruction
system.cpu1.op_class::SimdAddAcc                    0      0.00%     80.00% # Class of executed instruction
system.cpu1.op_class::SimdAlu                       0      0.00%     80.00% # Class of executed instruction
system.cpu1.op_class::SimdCmp                       0      0.00%     80.00% # Class of executed instruction
system.cpu1.op_class::SimdCvt                       0      0.00%     80.00% # Class of executed instruction
system.cpu1.op_class::SimdMisc                      0      0.00%     80.00% # Class of executed instruction
system.cpu1.op_class::SimdMult                      0      0.00%     80.00% # Class of executed instruction
system.cpu1.op_class::SimdMultAcc                   0      0.00%     80.00% # Class of executed instruction
system.cpu1.op_class::SimdShift                     0      0.00%     80.00% # Class of executed instruction
system.cpu1.op_class::SimdShiftAcc                  0      0.00%     80.00% # Class of executed instruction
system.cpu1.op_class::SimdDiv                       0      0.00%     80.00% # Class of executed instruction
system.cpu1.op_class::SimdSqrt                      0      0.00%     80.00% # Class of executed instruction
system.cpu1.op_class::SimdFloatAdd                  0      0.00%     80.00% # Class of executed instruction
system.cpu1.op_class::SimdFloatAlu                  0      0.00%     80.00% # Class of executed instruction
system.cpu1.op_class::SimdFloatCmp                  0      0.00%     80.00% # Class of executed instruction
system.cpu1.op_class::SimdFloatCvt                  0      0.00%     80.00% # Class of executed instruction
system.cpu1.op_class::SimdFloatDiv                  0      0.00%     80.00% # Class of executed instruction
system.cpu1.op_class::SimdFloatMisc                 0      0.00%     80.00% # Class of executed instruction
system.cpu1.op_class::SimdFloatMult                 0      0.00%     80.00% # Class of executed instruction
system.cpu1.op_class::SimdFloatMultAcc              0      0.00%     80.00% # Class of executed instruction
system.cpu1.op_class::SimdFloatSqrt                 0      0.00%     80.00% # Class of executed instruction
system.cpu1.op_class::SimdReduceAdd                 0      0.00%     80.00% # Class of executed instruction
system.cpu1.op_class::SimdReduceAlu                 0      0.00%     80.00% # Class of executed instruction
system.cpu1.op_class::SimdReduceCmp                 0      0.00%     80.00% # Class of executed instruction
system.cpu1.op_class::SimdFloatReduceAdd            0      0.00%     80.00% # Class of executed instruction
system.cpu1.op_class::SimdFloatReduceCmp            0      0.00%     80.00% # Class of executed instruction
system.cpu1.op_class::SimdAes                       0      0.00%     80.00% # Class of executed instruction
system.cpu1.op_class::SimdAesMix                    0      0.00%     80.00% # Class of executed instruction
system.cpu1.op_class::SimdSha1Hash                  0      0.00%     80.00% # Class of executed instruction
system.cpu1.op_class::SimdSha1Hash2                 0      0.00%     80.00% # Class of executed instruction
system.cpu1.op_class::SimdSha256Hash                0      0.00%     80.00% # Class of executed instruction
system.cpu1.op_class::SimdSha256Hash2               0      0.00%     80.00% # Class of executed instruction
system.cpu1.op_class::SimdShaSigma2                 0      0.00%     80.00% # Class of executed instruction
system.cpu1.op_class::SimdShaSigma3                 0      0.00%     80.00% # Class of executed instruction
system.cpu1.op_class::SimdPredAlu                   0      0.00%     80.00% # Class of executed instruction
system.cpu1.op_class::MemRead                       0      0.00%     80.00% # Class of executed instruction
system.cpu1.op_class::MemWrite                      1     20.00%    100.00% # Class of executed instruction
system.cpu1.op_class::FloatMemRead                  0      0.00%    100.00% # Class of executed instruction
system.cpu1.op_class::FloatMemWrite                 0      0.00%    100.00% # Class of executed instruction
system.cpu1.op_class::IprAccess                     0      0.00%    100.00% # Class of executed instruction
system.cpu1.op_class::InstPrefetch                  0      0.00%    100.00% # Class of executed instruction
system.cpu1.op_class::total                         5                       # Class of executed instruction
system.cpu1.toL2Bus.snoop_filter.hit_multi_requests           40                       # Number of requests hitting in the snoop filter with multiple (>1) holders of the requested data.
system.cpu1.toL2Bus.snoop_filter.hit_multi_snoops            0                       # Number of snoops hitting in the snoop filter with multiple (>1) holders of the requested data.
system.cpu1.toL2Bus.snoop_filter.hit_single_requests        56183                       # Number of requests hitting in the snoop filter with a single holder of the requested data.
system.cpu1.toL2Bus.snoop_filter.hit_single_snoops          500                       # Number of snoops hitting in the snoop filter with a single holder of the requested data.
system.cpu1.toL2Bus.snoop_filter.tot_requests       113164                       # Total number of requests made to the snoop filter.
system.cpu1.toL2Bus.snoop_filter.tot_snoops          500                       # Total number of snoops made to the snoop filter.
system.cpu1.toL3Bus.snoop_filter.hit_multi_requests            0                       # Number of requests hitting in the snoop filter with multiple (>1) holders of the requested data.
system.cpu1.toL3Bus.snoop_filter.hit_multi_snoops            0                       # Number of snoops hitting in the snoop filter with multiple (>1) holders of the requested data.
system.cpu1.toL3Bus.snoop_filter.hit_single_requests        25922                       # Number of requests hitting in the snoop filter with a single holder of the requested data.
system.cpu1.toL3Bus.snoop_filter.hit_single_snoops          235                       # Number of snoops hitting in the snoop filter with a single holder of the requested data.
system.cpu1.toL3Bus.snoop_filter.tot_requests        56264                       # Total number of requests made to the snoop filter.
system.cpu1.toL3Bus.snoop_filter.tot_snoops          235                       # Total number of snoops made to the snoop filter.
system.cpu1.workload.numSyscalls                16971                       # Number of system calls
system.membus.snoop_filter.hit_multi_requests            0                       # Number of requests hitting in the snoop filter with multiple (>1) holders of the requested data.
system.membus.snoop_filter.hit_multi_snoops            0                       # Number of snoops hitting in the snoop filter with multiple (>1) holders of the requested data.
system.membus.snoop_filter.hit_single_requests          610                       # Number of requests hitting in the snoop filter with a single holder of the requested data.
system.membus.snoop_filter.hit_single_snoops            0                       # Number of snoops hitting in the snoop filter with a single holder of the requested data.
system.membus.snoop_filter.tot_requests         32076                       # Total number of requests made to the snoop filter.
system.membus.snoop_filter.tot_snoops               0                       # Total number of snoops made to the snoop filter.
system.switch_cpus0.Branches                   236425                       # Number of branches fetched
system.switch_cpus0.committedInsts            1000002                       # Number of instructions committed
system.switch_cpus0.committedOps              1894148                       # Number of ops (including micro ops) committed
system.switch_cpus0.dtb.rdAccesses             247055                       # TLB accesses on read requests
system.switch_cpus0.dtb.rdMisses                   20                       # TLB misses on read requests
system.switch_cpus0.dtb.wrAccesses             167083                       # TLB accesses on write requests
system.switch_cpus0.dtb.wrMisses                    5                       # TLB misses on write requests
system.switch_cpus0.idle_fraction            0.000000                       # Percentage of idle cycles
system.switch_cpus0.itb.rdAccesses                  0                       # TLB accesses on read requests
system.switch_cpus0.itb.rdMisses                    0                       # TLB misses on read requests
system.switch_cpus0.itb.wrAccesses            1412969                       # TLB accesses on write requests
system.switch_cpus0.itb.wrMisses                   23                       # TLB misses on write requests
system.switch_cpus0.not_idle_fraction        1.000000                       # Percentage of non-idle cycles
system.switch_cpus0.numCycles                 5541617                       # number of cpu cycles simulated
system.switch_cpus0.numWorkItemsCompleted            0                       # number of work items this cpu completed
system.switch_cpus0.numWorkItemsStarted             0                       # number of work items this cpu started
system.switch_cpus0.num_busy_cycles      5541616.504914                       # Number of busy cycles
system.switch_cpus0.num_cc_register_reads      1127592                       # number of times the CC registers were read
system.switch_cpus0.num_cc_register_writes       559208                       # number of times the CC registers were written
system.switch_cpus0.num_conditional_control_insts       186789                       # number of instructions that are conditional controls
system.switch_cpus0.num_fp_alu_accesses         15224                       # Number of float alu accesses
system.switch_cpus0.num_fp_insts                15224                       # number of float instructions
system.switch_cpus0.num_fp_register_reads         7942                       # number of times the floating registers were read
system.switch_cpus0.num_fp_register_writes         8836                       # number of times the floating registers were written
system.switch_cpus0.num_func_calls              16349                       # number of times a function call or return occured
system.switch_cpus0.num_idle_cycles          0.495086                       # Number of idle cycles
system.switch_cpus0.num_int_alu_accesses      1889696                       # Number of integer alu accesses
system.switch_cpus0.num_int_insts             1889696                       # number of integer instructions
system.switch_cpus0.num_int_register_reads      3667681                       # number of times the integer registers were read
system.switch_cpus0.num_int_register_writes      1482166                       # number of times the integer registers were written
system.switch_cpus0.num_load_insts             247055                       # Number of load instructions
system.switch_cpus0.num_mem_refs               414138                       # number of memory refs
system.switch_cpus0.num_store_insts            167083                       # Number of store instructions
system.switch_cpus0.num_vec_alu_accesses            0                       # Number of vector alu accesses
system.switch_cpus0.num_vec_insts                   0                       # number of vector instructions
system.switch_cpus0.num_vec_register_reads            0                       # number of times the vector registers were read
system.switch_cpus0.num_vec_register_writes            0                       # number of times the vector registers were written
system.switch_cpus0.op_class::No_OpClass         2078      0.11%      0.11% # Class of executed instruction
system.switch_cpus0.op_class::IntAlu          1473266     77.78%     77.89% # Class of executed instruction
system.switch_cpus0.op_class::IntMult            2144      0.11%     78.00% # Class of executed instruction
system.switch_cpus0.op_class::IntDiv                0      0.00%     78.00% # Class of executed instruction
system.switch_cpus0.op_class::FloatAdd           1708      0.09%     78.09% # Class of executed instruction
system.switch_cpus0.op_class::FloatCmp              0      0.00%     78.09% # Class of executed instruction
system.switch_cpus0.op_class::FloatCvt              0      0.00%     78.09% # Class of executed instruction
system.switch_cpus0.op_class::FloatMult             0      0.00%     78.09% # Class of executed instruction
system.switch_cpus0.op_class::FloatMultAcc            0      0.00%     78.09% # Class of executed instruction
system.switch_cpus0.op_class::FloatDiv              0      0.00%     78.09% # Class of executed instruction
system.switch_cpus0.op_class::FloatMisc             0      0.00%     78.09% # Class of executed instruction
system.switch_cpus0.op_class::FloatSqrt             0      0.00%     78.09% # Class of executed instruction
system.switch_cpus0.op_class::SimdAdd               0      0.00%     78.09% # Class of executed instruction
system.switch_cpus0.op_class::SimdAddAcc            0      0.00%     78.09% # Class of executed instruction
system.switch_cpus0.op_class::SimdAlu               0      0.00%     78.09% # Class of executed instruction
system.switch_cpus0.op_class::SimdCmp               0      0.00%     78.09% # Class of executed instruction
system.switch_cpus0.op_class::SimdCvt             148      0.01%     78.10% # Class of executed instruction
system.switch_cpus0.op_class::SimdMisc            666      0.04%     78.14% # Class of executed instruction
system.switch_cpus0.op_class::SimdMult              0      0.00%     78.14% # Class of executed instruction
system.switch_cpus0.op_class::SimdMultAcc            0      0.00%     78.14% # Class of executed instruction
system.switch_cpus0.op_class::SimdShift             0      0.00%     78.14% # Class of executed instruction
system.switch_cpus0.op_class::SimdShiftAcc            0      0.00%     78.14% # Class of executed instruction
system.switch_cpus0.op_class::SimdDiv               0      0.00%     78.14% # Class of executed instruction
system.switch_cpus0.op_class::SimdSqrt              0      0.00%     78.14% # Class of executed instruction
system.switch_cpus0.op_class::SimdFloatAdd            0      0.00%     78.14% # Class of executed instruction
system.switch_cpus0.op_class::SimdFloatAlu            0      0.00%     78.14% # Class of executed instruction
system.switch_cpus0.op_class::SimdFloatCmp            0      0.00%     78.14% # Class of executed instruction
system.switch_cpus0.op_class::SimdFloatCvt            0      0.00%     78.14% # Class of executed instruction
system.switch_cpus0.op_class::SimdFloatDiv            0      0.00%     78.14% # Class of executed instruction
system.switch_cpus0.op_class::SimdFloatMisc            0      0.00%     78.14% # Class of executed instruction
system.switch_cpus0.op_class::SimdFloatMult            0      0.00%     78.14% # Class of executed instruction
system.switch_cpus0.op_class::SimdFloatMultAcc            0      0.00%     78.14% # Class of executed instruction
system.switch_cpus0.op_class::SimdFloatSqrt            0      0.00%     78.14% # Class of executed instruction
system.switch_cpus0.op_class::SimdReduceAdd            0      0.00%     78.14% # Class of executed instruction
system.switch_cpus0.op_class::SimdReduceAlu            0      0.00%     78.14% # Class of executed instruction
system.switch_cpus0.op_class::SimdReduceCmp            0      0.00%     78.14% # Class of executed instruction
system.switch_cpus0.op_class::SimdFloatReduceAdd            0      0.00%     78.14% # Class of executed instruction
system.switch_cpus0.op_class::SimdFloatReduceCmp            0      0.00%     78.14% # Class of executed instruction
system.switch_cpus0.op_class::SimdAes               0      0.00%     78.14% # Class of executed instruction
system.switch_cpus0.op_class::SimdAesMix            0      0.00%     78.14% # Class of executed instruction
system.switch_cpus0.op_class::SimdSha1Hash            0      0.00%     78.14% # Class of executed instruction
system.switch_cpus0.op_class::SimdSha1Hash2            0      0.00%     78.14% # Class of executed instruction
system.switch_cpus0.op_class::SimdSha256Hash            0      0.00%     78.14% # Class of executed instruction
system.switch_cpus0.op_class::SimdSha256Hash2            0      0.00%     78.14% # Class of executed instruction
system.switch_cpus0.op_class::SimdShaSigma2            0      0.00%     78.14% # Class of executed instruction
system.switch_cpus0.op_class::SimdShaSigma3            0      0.00%     78.14% # Class of executed instruction
system.switch_cpus0.op_class::SimdPredAlu            0      0.00%     78.14% # Class of executed instruction
system.switch_cpus0.op_class::MemRead          240667     12.71%     90.84% # Class of executed instruction
system.switch_cpus0.op_class::MemWrite         160843      8.49%     99.33% # Class of executed instruction
system.switch_cpus0.op_class::FloatMemRead         6388      0.34%     99.67% # Class of executed instruction
system.switch_cpus0.op_class::FloatMemWrite         6240      0.33%    100.00% # Class of executed instruction
system.switch_cpus0.op_class::IprAccess             0      0.00%    100.00% # Class of executed instruction
system.switch_cpus0.op_class::InstPrefetch            0      0.00%    100.00% # Class of executed instruction
system.switch_cpus0.op_class::total           1894148                       # Class of executed instruction
system.switch_cpus1.Branches                   212604                       # Number of branches fetched
system.switch_cpus1.committedInsts             945724                       # Number of instructions committed
system.switch_cpus1.committedOps              1914169                       # Number of ops (including micro ops) committed
system.switch_cpus1.dtb.rdAccesses             276144                       # TLB accesses on read requests
system.switch_cpus1.dtb.rdMisses                   40                       # TLB misses on read requests
system.switch_cpus1.dtb.wrAccesses             201716                       # TLB accesses on write requests
system.switch_cpus1.dtb.wrMisses                    3                       # TLB misses on write requests
system.switch_cpus1.idle_fraction            0.000000                       # Percentage of idle cycles
system.switch_cpus1.itb.rdAccesses                  0                       # TLB accesses on read requests
system.switch_cpus1.itb.rdMisses                    0                       # TLB misses on read requests
system.switch_cpus1.itb.wrAccesses            1198970                       # TLB accesses on write requests
system.switch_cpus1.itb.wrMisses                   27                       # TLB misses on write requests
system.switch_cpus1.not_idle_fraction        1.000000                       # Percentage of non-idle cycles
system.switch_cpus1.numCycles                 5541617                       # number of cpu cycles simulated
system.switch_cpus1.numWorkItemsCompleted            0                       # number of work items this cpu completed
system.switch_cpus1.numWorkItemsStarted             0                       # number of work items this cpu started
system.switch_cpus1.num_busy_cycles      5541616.504914                       # Number of busy cycles
system.switch_cpus1.num_cc_register_reads       792612                       # number of times the CC registers were read
system.switch_cpus1.num_cc_register_writes       424950                       # number of times the CC registers were written
system.switch_cpus1.num_conditional_control_insts        96859                       # number of instructions that are conditional controls
system.switch_cpus1.num_fp_alu_accesses         15556                       # Number of float alu accesses
system.switch_cpus1.num_fp_insts                15556                       # number of float instructions
system.switch_cpus1.num_fp_register_reads        26112                       # number of times the floating registers were read
system.switch_cpus1.num_fp_register_writes        13682                       # number of times the floating registers were written
system.switch_cpus1.num_func_calls             100302                       # number of times a function call or return occured
system.switch_cpus1.num_idle_cycles          0.495086                       # Number of idle cycles
system.switch_cpus1.num_int_alu_accesses      1894507                       # Number of integer alu accesses
system.switch_cpus1.num_int_insts             1894507                       # number of integer instructions
system.switch_cpus1.num_int_register_reads      4016237                       # number of times the integer registers were read
system.switch_cpus1.num_int_register_writes      1486103                       # number of times the integer registers were written
system.switch_cpus1.num_load_insts             276142                       # Number of load instructions
system.switch_cpus1.num_mem_refs               477856                       # number of memory refs
system.switch_cpus1.num_store_insts            201714                       # Number of store instructions
system.switch_cpus1.num_vec_alu_accesses            0                       # Number of vector alu accesses
system.switch_cpus1.num_vec_insts                   0                       # number of vector instructions
system.switch_cpus1.num_vec_register_reads            0                       # number of times the vector registers were read
system.switch_cpus1.num_vec_register_writes            0                       # number of times the vector registers were written
system.switch_cpus1.op_class::No_OpClass         6380      0.33%      0.33% # Class of executed instruction
system.switch_cpus1.op_class::IntAlu          1415683     73.96%     74.29% # Class of executed instruction
system.switch_cpus1.op_class::IntMult             884      0.05%     74.34% # Class of executed instruction
system.switch_cpus1.op_class::IntDiv             2170      0.11%     74.45% # Class of executed instruction
system.switch_cpus1.op_class::FloatAdd            620      0.03%     74.48% # Class of executed instruction
system.switch_cpus1.op_class::FloatCmp              0      0.00%     74.48% # Class of executed instruction
system.switch_cpus1.op_class::FloatCvt              0      0.00%     74.48% # Class of executed instruction
system.switch_cpus1.op_class::FloatMult             0      0.00%     74.48% # Class of executed instruction
system.switch_cpus1.op_class::FloatMultAcc            0      0.00%     74.48% # Class of executed instruction
system.switch_cpus1.op_class::FloatDiv              0      0.00%     74.48% # Class of executed instruction
system.switch_cpus1.op_class::FloatMisc             0      0.00%     74.48% # Class of executed instruction
system.switch_cpus1.op_class::FloatSqrt             0      0.00%     74.48% # Class of executed instruction
system.switch_cpus1.op_class::SimdAdd               0      0.00%     74.48% # Class of executed instruction
system.switch_cpus1.op_class::SimdAddAcc            0      0.00%     74.48% # Class of executed instruction
system.switch_cpus1.op_class::SimdAlu            2488      0.13%     74.61% # Class of executed instruction
system.switch_cpus1.op_class::SimdCmp               0      0.00%     74.61% # Class of executed instruction
system.switch_cpus1.op_class::SimdCvt            2494      0.13%     74.74% # Class of executed instruction
system.switch_cpus1.op_class::SimdMisc           5594      0.29%     75.04% # Class of executed instruction
system.switch_cpus1.op_class::SimdMult              0      0.00%     75.04% # Class of executed instruction
system.switch_cpus1.op_class::SimdMultAcc            0      0.00%     75.04% # Class of executed instruction
system.switch_cpus1.op_class::SimdShift             0      0.00%     75.04% # Class of executed instruction
system.switch_cpus1.op_class::SimdShiftAcc            0      0.00%     75.04% # Class of executed instruction
system.switch_cpus1.op_class::SimdDiv               0      0.00%     75.04% # Class of executed instruction
system.switch_cpus1.op_class::SimdSqrt              0      0.00%     75.04% # Class of executed instruction
system.switch_cpus1.op_class::SimdFloatAdd            0      0.00%     75.04% # Class of executed instruction
system.switch_cpus1.op_class::SimdFloatAlu            0      0.00%     75.04% # Class of executed instruction
system.switch_cpus1.op_class::SimdFloatCmp            0      0.00%     75.04% # Class of executed instruction
system.switch_cpus1.op_class::SimdFloatCvt            0      0.00%     75.04% # Class of executed instruction
system.switch_cpus1.op_class::SimdFloatDiv            0      0.00%     75.04% # Class of executed instruction
system.switch_cpus1.op_class::SimdFloatMisc            0      0.00%     75.04% # Class of executed instruction
system.switch_cpus1.op_class::SimdFloatMult            0      0.00%     75.04% # Class of executed instruction
system.switch_cpus1.op_class::SimdFloatMultAcc            0      0.00%     75.04% # Class of executed instruction
system.switch_cpus1.op_class::SimdFloatSqrt            0      0.00%     75.04% # Class of executed instruction
system.switch_cpus1.op_class::SimdReduceAdd            0      0.00%     75.04% # Class of executed instruction
system.switch_cpus1.op_class::SimdReduceAlu            0      0.00%     75.04% # Class of executed instruction
system.switch_cpus1.op_class::SimdReduceCmp            0      0.00%     75.04% # Class of executed instruction
system.switch_cpus1.op_class::SimdFloatReduceAdd            0      0.00%     75.04% # Class of executed instruction
system.switch_cpus1.op_class::SimdFloatReduceCmp            0      0.00%     75.04% # Class of executed instruction
system.switch_cpus1.op_class::SimdAes               0      0.00%     75.04% # Class of executed instruction
system.switch_cpus1.op_class::SimdAesMix            0      0.00%     75.04% # Class of executed instruction
system.switch_cpus1.op_class::SimdSha1Hash            0      0.00%     75.04% # Class of executed instruction
system.switch_cpus1.op_class::SimdSha1Hash2            0      0.00%     75.04% # Class of executed instruction
system.switch_cpus1.op_class::SimdSha256Hash            0      0.00%     75.04% # Class of executed instruction
system.switch_cpus1.op_class::SimdSha256Hash2            0      0.00%     75.04% # Class of executed instruction
system.switch_cpus1.op_class::SimdShaSigma2            0      0.00%     75.04% # Class of executed instruction
system.switch_cpus1.op_class::SimdShaSigma3            0      0.00%     75.04% # Class of executed instruction
system.switch_cpus1.op_class::SimdPredAlu            0      0.00%     75.04% # Class of executed instruction
system.switch_cpus1.op_class::MemRead          274262     14.33%     89.36% # Class of executed instruction
system.switch_cpus1.op_class::MemWrite         201094     10.51%     99.87% # Class of executed instruction
system.switch_cpus1.op_class::FloatMemRead         1880      0.10%     99.97% # Class of executed instruction
system.switch_cpus1.op_class::FloatMemWrite          620      0.03%    100.00% # Class of executed instruction
system.switch_cpus1.op_class::IprAccess             0      0.00%    100.00% # Class of executed instruction
system.switch_cpus1.op_class::InstPrefetch            0      0.00%    100.00% # Class of executed instruction
system.switch_cpus1.op_class::total           1914169                       # Class of executed instruction
system.switch_cpus_10.branchPred.BTBCorrect            0                       # Number of correct BTB predictions (this stat may not work properly.
system.switch_cpus_10.branchPred.BTBHitPct     0.000000                       # BTB Hit Percentage
system.switch_cpus_10.branchPred.BTBHits            0                       # Number of BTB hits
system.switch_cpus_10.branchPred.BTBLookups        32264                       # Number of BTB lookups
system.switch_cpus_10.branchPred.RASInCorrect            9                       # Number of incorrect RAS predictions.
system.switch_cpus_10.branchPred.condIncorrect         1985                       # Number of conditional branches incorrect
system.switch_cpus_10.branchPred.condPredicted        32393                       # Number of conditional branches predicted
system.switch_cpus_10.branchPred.indirectHits        13300                       # Number of indirect target hits.
system.switch_cpus_10.branchPred.indirectLookups        32264                       # Number of indirect predictor lookups.
system.switch_cpus_10.branchPred.indirectMisses        18964                       # Number of indirect misses.
system.switch_cpus_10.branchPred.lookups        35613                       # Number of BP lookups
system.switch_cpus_10.branchPred.usedRAS         1298                       # Number of times the RAS was used to get a target.
system.switch_cpus_10.branchPredindirectMispredicted         1458                       # Number of mispredicted indirect branches.
system.switch_cpus_10.cc_regfile_reads         137362                       # number of cc regfile reads
system.switch_cpus_10.cc_regfile_writes         70450                       # number of cc regfile writes
system.switch_cpus_10.commit.amos                   0                       # Number of atomic instructions committed
system.switch_cpus_10.commit.branchMispredicts         1985                       # The number of times a branch was mispredicted
system.switch_cpus_10.commit.branches           26861                       # Number of branches committed
system.switch_cpus_10.commit.bw_lim_events        10677                       # number cycles where commit BW limit reached
system.switch_cpus_10.commit.commitNonSpecStalls           53                       # The number of times commit has been forced to stall to communicate backwards
system.switch_cpus_10.commit.commitSquashedInsts        43416                       # The number of squashed insts skipped by commit
system.switch_cpus_10.commit.committedInsts       114071                       # Number of instructions committed
system.switch_cpus_10.commit.committedOps       217445                       # Number of ops (including micro ops) committed
system.switch_cpus_10.commit.committed_per_cycle::samples       126787                       # Number of insts commited each cycle
system.switch_cpus_10.commit.committed_per_cycle::mean     1.715042                       # Number of insts commited each cycle
system.switch_cpus_10.commit.committed_per_cycle::stdev     2.511849                       # Number of insts commited each cycle
system.switch_cpus_10.commit.committed_per_cycle::underflows            0      0.00%      0.00% # Number of insts commited each cycle
system.switch_cpus_10.commit.committed_per_cycle::0        66786     52.68%     52.68% # Number of insts commited each cycle
system.switch_cpus_10.commit.committed_per_cycle::1        16830     13.27%     65.95% # Number of insts commited each cycle
system.switch_cpus_10.commit.committed_per_cycle::2         7459      5.88%     71.83% # Number of insts commited each cycle
system.switch_cpus_10.commit.committed_per_cycle::3        13108     10.34%     82.17% # Number of insts commited each cycle
system.switch_cpus_10.commit.committed_per_cycle::4         4242      3.35%     85.52% # Number of insts commited each cycle
system.switch_cpus_10.commit.committed_per_cycle::5         3972      3.13%     88.65% # Number of insts commited each cycle
system.switch_cpus_10.commit.committed_per_cycle::6         1862      1.47%     90.12% # Number of insts commited each cycle
system.switch_cpus_10.commit.committed_per_cycle::7         1851      1.46%     91.58% # Number of insts commited each cycle
system.switch_cpus_10.commit.committed_per_cycle::8        10677      8.42%    100.00% # Number of insts commited each cycle
system.switch_cpus_10.commit.committed_per_cycle::overflows            0      0.00%    100.00% # Number of insts commited each cycle
system.switch_cpus_10.commit.committed_per_cycle::min_value            0                       # Number of insts commited each cycle
system.switch_cpus_10.commit.committed_per_cycle::max_value            8                       # Number of insts commited each cycle
system.switch_cpus_10.commit.committed_per_cycle::total       126787                       # Number of insts commited each cycle
system.switch_cpus_10.commit.fp_insts            2474                       # Number of committed floating point instructions.
system.switch_cpus_10.commit.function_calls         1004                       # Number of function calls committed.
system.switch_cpus_10.commit.int_insts         216562                       # Number of committed integer instructions.
system.switch_cpus_10.commit.loads              28881                       # Number of loads committed
system.switch_cpus_10.commit.membars                0                       # Number of memory barriers committed
system.switch_cpus_10.commit.op_class_0::No_OpClass          328      0.15%      0.15% # Class of committed instruction
system.switch_cpus_10.commit.op_class_0::IntAlu       168369     77.43%     77.58% # Class of committed instruction
system.switch_cpus_10.commit.op_class_0::IntMult          224      0.10%     77.68% # Class of committed instruction
system.switch_cpus_10.commit.op_class_0::IntDiv           77      0.04%     77.72% # Class of committed instruction
system.switch_cpus_10.commit.op_class_0::FloatAdd          228      0.10%     77.82% # Class of committed instruction
system.switch_cpus_10.commit.op_class_0::FloatCmp            0      0.00%     77.82% # Class of committed instruction
system.switch_cpus_10.commit.op_class_0::FloatCvt           80      0.04%     77.86% # Class of committed instruction
system.switch_cpus_10.commit.op_class_0::FloatMult            0      0.00%     77.86% # Class of committed instruction
system.switch_cpus_10.commit.op_class_0::FloatMultAcc            0      0.00%     77.86% # Class of committed instruction
system.switch_cpus_10.commit.op_class_0::FloatDiv            0      0.00%     77.86% # Class of committed instruction
system.switch_cpus_10.commit.op_class_0::FloatMisc            0      0.00%     77.86% # Class of committed instruction
system.switch_cpus_10.commit.op_class_0::FloatSqrt            0      0.00%     77.86% # Class of committed instruction
system.switch_cpus_10.commit.op_class_0::SimdAdd           28      0.01%     77.87% # Class of committed instruction
system.switch_cpus_10.commit.op_class_0::SimdAddAcc            0      0.00%     77.87% # Class of committed instruction
system.switch_cpus_10.commit.op_class_0::SimdAlu           67      0.03%     77.91% # Class of committed instruction
system.switch_cpus_10.commit.op_class_0::SimdCmp            0      0.00%     77.91% # Class of committed instruction
system.switch_cpus_10.commit.op_class_0::SimdCvt          104      0.05%     77.95% # Class of committed instruction
system.switch_cpus_10.commit.op_class_0::SimdMisc          178      0.08%     78.03% # Class of committed instruction
system.switch_cpus_10.commit.op_class_0::SimdMult            0      0.00%     78.03% # Class of committed instruction
system.switch_cpus_10.commit.op_class_0::SimdMultAcc            0      0.00%     78.03% # Class of committed instruction
system.switch_cpus_10.commit.op_class_0::SimdShift           27      0.01%     78.05% # Class of committed instruction
system.switch_cpus_10.commit.op_class_0::SimdShiftAcc            0      0.00%     78.05% # Class of committed instruction
system.switch_cpus_10.commit.op_class_0::SimdDiv            0      0.00%     78.05% # Class of committed instruction
system.switch_cpus_10.commit.op_class_0::SimdSqrt            0      0.00%     78.05% # Class of committed instruction
system.switch_cpus_10.commit.op_class_0::SimdFloatAdd            0      0.00%     78.05% # Class of committed instruction
system.switch_cpus_10.commit.op_class_0::SimdFloatAlu            0      0.00%     78.05% # Class of committed instruction
system.switch_cpus_10.commit.op_class_0::SimdFloatCmp            0      0.00%     78.05% # Class of committed instruction
system.switch_cpus_10.commit.op_class_0::SimdFloatCvt            0      0.00%     78.05% # Class of committed instruction
system.switch_cpus_10.commit.op_class_0::SimdFloatDiv            0      0.00%     78.05% # Class of committed instruction
system.switch_cpus_10.commit.op_class_0::SimdFloatMisc            0      0.00%     78.05% # Class of committed instruction
system.switch_cpus_10.commit.op_class_0::SimdFloatMult            0      0.00%     78.05% # Class of committed instruction
system.switch_cpus_10.commit.op_class_0::SimdFloatMultAcc            0      0.00%     78.05% # Class of committed instruction
system.switch_cpus_10.commit.op_class_0::SimdFloatSqrt            0      0.00%     78.05% # Class of committed instruction
system.switch_cpus_10.commit.op_class_0::SimdReduceAdd            0      0.00%     78.05% # Class of committed instruction
system.switch_cpus_10.commit.op_class_0::SimdReduceAlu            0      0.00%     78.05% # Class of committed instruction
system.switch_cpus_10.commit.op_class_0::SimdReduceCmp            0      0.00%     78.05% # Class of committed instruction
system.switch_cpus_10.commit.op_class_0::SimdFloatReduceAdd            0      0.00%     78.05% # Class of committed instruction
system.switch_cpus_10.commit.op_class_0::SimdFloatReduceCmp            0      0.00%     78.05% # Class of committed instruction
system.switch_cpus_10.commit.op_class_0::SimdAes            0      0.00%     78.05% # Class of committed instruction
system.switch_cpus_10.commit.op_class_0::SimdAesMix            0      0.00%     78.05% # Class of committed instruction
system.switch_cpus_10.commit.op_class_0::SimdSha1Hash            0      0.00%     78.05% # Class of committed instruction
system.switch_cpus_10.commit.op_class_0::SimdSha1Hash2            0      0.00%     78.05% # Class of committed instruction
system.switch_cpus_10.commit.op_class_0::SimdSha256Hash            0      0.00%     78.05% # Class of committed instruction
system.switch_cpus_10.commit.op_class_0::SimdSha256Hash2            0      0.00%     78.05% # Class of committed instruction
system.switch_cpus_10.commit.op_class_0::SimdShaSigma2            0      0.00%     78.05% # Class of committed instruction
system.switch_cpus_10.commit.op_class_0::SimdShaSigma3            0      0.00%     78.05% # Class of committed instruction
system.switch_cpus_10.commit.op_class_0::SimdPredAlu            0      0.00%     78.05% # Class of committed instruction
system.switch_cpus_10.commit.op_class_0::MemRead        27975     12.87%     90.91% # Class of committed instruction
system.switch_cpus_10.commit.op_class_0::MemWrite        18026      8.29%     99.20% # Class of committed instruction
system.switch_cpus_10.commit.op_class_0::FloatMemRead          906      0.42%     99.62% # Class of committed instruction
system.switch_cpus_10.commit.op_class_0::FloatMemWrite          828      0.38%    100.00% # Class of committed instruction
system.switch_cpus_10.commit.op_class_0::IprAccess            0      0.00%    100.00% # Class of committed instruction
system.switch_cpus_10.commit.op_class_0::InstPrefetch            0      0.00%    100.00% # Class of committed instruction
system.switch_cpus_10.commit.op_class_0::total       217445                       # Class of committed instruction
system.switch_cpus_10.commit.refs               47735                       # Number of memory references committed
system.switch_cpus_10.commit.swp_count              0                       # Number of s/w prefetches committed
system.switch_cpus_10.commit.vec_insts              0                       # Number of committed Vector instructions.
system.switch_cpus_10.committedInsts           114071                       # Number of Instructions Simulated
system.switch_cpus_10.committedOps             217445                       # Number of Ops (including micro ops) Simulated
system.switch_cpus_10.cpi                    1.634473                       # CPI: Cycles Per Instruction
system.switch_cpus_10.cpi_total              1.634473                       # CPI: Total CPI of All Threads
system.switch_cpus_10.decode.BlockedCycles        31428                       # Number of cycles decode is blocked
system.switch_cpus_10.decode.DecodedInsts       280803                       # Number of instructions handled by decode
system.switch_cpus_10.decode.IdleCycles         55954                       # Number of cycles decode is idle
system.switch_cpus_10.decode.RunCycles          44185                       # Number of cycles decode is running
system.switch_cpus_10.decode.SquashCycles         2020                       # Number of cycles decode is squashing
system.switch_cpus_10.decode.UnblockCycles          474                       # Number of cycles decode is unblocking
system.switch_cpus_10.dtb.rdAccesses            32955                       # TLB accesses on read requests
system.switch_cpus_10.dtb.rdMisses                 92                       # TLB misses on read requests
system.switch_cpus_10.dtb.wrAccesses            20626                       # TLB accesses on write requests
system.switch_cpus_10.dtb.wrMisses                  4                       # TLB misses on write requests
system.switch_cpus_10.fetch.Branches            35613                       # Number of branches that fetch encountered
system.switch_cpus_10.fetch.CacheLines          23489                       # Number of cache lines fetched
system.switch_cpus_10.fetch.Cycles              72181                       # Number of cycles fetch has run and was not squashing or blocked
system.switch_cpus_10.fetch.IcacheSquashes         1020                       # Number of outstanding Icache misses that were squashed
system.switch_cpus_10.fetch.IcacheWaitRetryStallCycles          502                       # Number of stall cycles due to full MSHR
system.switch_cpus_10.fetch.Insts              150552                       # Number of instructions fetch has processed
system.switch_cpus_10.fetch.MiscStallCycles          248                       # Number of cycles fetch has spent waiting on interrupts, or bad addresses, or out of MSHRs
system.switch_cpus_10.fetch.PendingQuiesceStallCycles           43                       # Number of stall cycles due to pending quiesce instructions
system.switch_cpus_10.fetch.SquashCycles         4040                       # Number of cycles fetch has spent squashing
system.switch_cpus_10.fetch.branchRate       0.191010                       # Number of branch fetches per cycle
system.switch_cpus_10.fetch.icacheStallCycles        59077                       # Number of cycles fetch is stalled on an Icache miss
system.switch_cpus_10.fetch.predictedBranches        14598                       # Number of branches that fetch has predicted taken
system.switch_cpus_10.fetch.rate             0.807483                       # Number of inst fetches per cycle
system.switch_cpus_10.fetch.rateDist::samples       134071                       # Number of instructions fetched each cycle (Total)
system.switch_cpus_10.fetch.rateDist::mean     2.165770                       # Number of instructions fetched each cycle (Total)
system.switch_cpus_10.fetch.rateDist::stdev     3.266254                       # Number of instructions fetched each cycle (Total)
system.switch_cpus_10.fetch.rateDist::underflows            0      0.00%      0.00% # Number of instructions fetched each cycle (Total)
system.switch_cpus_10.fetch.rateDist::0         87346     65.15%     65.15% # Number of instructions fetched each cycle (Total)
system.switch_cpus_10.fetch.rateDist::1          2336      1.74%     66.89% # Number of instructions fetched each cycle (Total)
system.switch_cpus_10.fetch.rateDist::2          2723      2.03%     68.92% # Number of instructions fetched each cycle (Total)
system.switch_cpus_10.fetch.rateDist::3          3501      2.61%     71.53% # Number of instructions fetched each cycle (Total)
system.switch_cpus_10.fetch.rateDist::4          3672      2.74%     74.27% # Number of instructions fetched each cycle (Total)
system.switch_cpus_10.fetch.rateDist::5          3427      2.56%     76.83% # Number of instructions fetched each cycle (Total)
system.switch_cpus_10.fetch.rateDist::6          2915      2.17%     79.00% # Number of instructions fetched each cycle (Total)
system.switch_cpus_10.fetch.rateDist::7          2439      1.82%     80.82% # Number of instructions fetched each cycle (Total)
system.switch_cpus_10.fetch.rateDist::8         25712     19.18%    100.00% # Number of instructions fetched each cycle (Total)
system.switch_cpus_10.fetch.rateDist::overflows            0      0.00%    100.00% # Number of instructions fetched each cycle (Total)
system.switch_cpus_10.fetch.rateDist::min_value            0                       # Number of instructions fetched each cycle (Total)
system.switch_cpus_10.fetch.rateDist::max_value            8                       # Number of instructions fetched each cycle (Total)
system.switch_cpus_10.fetch.rateDist::total       134071                       # Number of instructions fetched each cycle (Total)
system.switch_cpus_10.fp_regfile_reads           2435                       # number of floating regfile reads
system.switch_cpus_10.fp_regfile_writes          1877                       # number of floating regfile writes
system.switch_cpus_10.idleCycles                52375                       # Total number of cycles that the CPU has spent unscheduled due to idling
system.switch_cpus_10.iew.branchMispredicts         2361                       # Number of branch mispredicts detected at execute
system.switch_cpus_10.iew.exec_branches         29219                       # Number of branches executed
system.switch_cpus_10.iew.exec_nop                  0                       # number of nop insts executed
system.switch_cpus_10.iew.exec_rate          1.316376                       # Inst execution rate
system.switch_cpus_10.iew.exec_refs             53647                       # number of memory reference insts executed
system.switch_cpus_10.iew.exec_stores           20625                       # Number of stores executed
system.switch_cpus_10.iew.exec_swp                  0                       # number of swp insts executed
system.switch_cpus_10.iew.iewBlockCycles        17209                       # Number of cycles IEW is blocking
system.switch_cpus_10.iew.iewDispLoadInsts        34777                       # Number of dispatched load instructions
system.switch_cpus_10.iew.iewDispNonSpecInsts          170                       # Number of dispatched non-speculative instructions
system.switch_cpus_10.iew.iewDispSquashedInsts         1262                       # Number of squashed instructions skipped by dispatch
system.switch_cpus_10.iew.iewDispStoreInsts        22312                       # Number of dispatched store instructions
system.switch_cpus_10.iew.iewDispatchedInsts       260831                       # Number of instructions dispatched to IQ
system.switch_cpus_10.iew.iewExecLoadInsts        33022                       # Number of load instructions executed
system.switch_cpus_10.iew.iewExecSquashedInsts         3489                       # Number of squashed instructions skipped in execute
system.switch_cpus_10.iew.iewExecutedInsts       245433                       # Number of executed instructions
system.switch_cpus_10.iew.iewIQFullEvents           97                       # Number of times the IQ has become full, causing a stall
system.switch_cpus_10.iew.iewIdleCycles             0                       # Number of cycles IEW is idle
system.switch_cpus_10.iew.iewLSQFullEvents          692                       # Number of times the LSQ has become full, causing a stall
system.switch_cpus_10.iew.iewSquashCycles         2020                       # Number of cycles IEW is squashing
system.switch_cpus_10.iew.iewUnblockCycles          823                       # Number of cycles IEW is unblocking
system.switch_cpus_10.iew.lsq.thread0.blockedLoads            0                       # Number of blocked loads due to partial load-store forwarding
system.switch_cpus_10.iew.lsq.thread0.cacheBlocked           26                       # Number of times an access to memory failed due to the cache being blocked
system.switch_cpus_10.iew.lsq.thread0.forwLoads         4836                       # Number of loads that had data forwarded from stores
system.switch_cpus_10.iew.lsq.thread0.ignoredResponses           28                       # Number of memory responses ignored because the instruction is squashed
system.switch_cpus_10.iew.lsq.thread0.invAddrLoads            0                       # Number of loads ignored due to an invalid address
system.switch_cpus_10.iew.lsq.thread0.invAddrSwpfs            0                       # Number of software prefetches ignored due to an invalid address
system.switch_cpus_10.iew.lsq.thread0.memOrderViolation           41                       # Number of memory ordering violations
system.switch_cpus_10.iew.lsq.thread0.rescheduledLoads          154                       # Number of loads that were rescheduled
system.switch_cpus_10.iew.lsq.thread0.squashedLoads         5896                       # Number of loads squashed
system.switch_cpus_10.iew.lsq.thread0.squashedStores         3458                       # Number of stores squashed
system.switch_cpus_10.iew.memOrderViolationEvents           41                       # Number of memory order violations
system.switch_cpus_10.iew.predictedNotTakenIncorrect         2128                       # Number of branches that were predicted not taken incorrectly
system.switch_cpus_10.iew.predictedTakenIncorrect          233                       # Number of branches that were predicted taken incorrectly
system.switch_cpus_10.iew.wb_consumers         252805                       # num instructions consuming a value
system.switch_cpus_10.iew.wb_count             243091                       # cumulative count of insts written-back
system.switch_cpus_10.iew.wb_fanout          0.667748                       # average fanout of values written-back
system.switch_cpus_10.iew.wb_producers         168810                       # num instructions producing a value
system.switch_cpus_10.iew.wb_rate            1.303815                       # insts written-back per cycle
system.switch_cpus_10.iew.wb_sent              243506                       # cumulative count of insts sent to commit
system.switch_cpus_10.int_regfile_reads        351455                       # number of integer regfile reads
system.switch_cpus_10.int_regfile_writes       191220                       # number of integer regfile writes
system.switch_cpus_10.ipc                    0.611818                       # IPC: Instructions Per Cycle
system.switch_cpus_10.ipc_total              0.611818                       # IPC: Total IPC of All Threads
system.switch_cpus_10.iq.FU_type_0::No_OpClass          974      0.39%      0.39% # Type of FU issued
system.switch_cpus_10.iq.FU_type_0::IntAlu       192089     77.17%     77.56% # Type of FU issued
system.switch_cpus_10.iq.FU_type_0::IntMult          253      0.10%     77.66% # Type of FU issued
system.switch_cpus_10.iq.FU_type_0::IntDiv           80      0.03%     77.69% # Type of FU issued
system.switch_cpus_10.iq.FU_type_0::FloatAdd          279      0.11%     77.81% # Type of FU issued
system.switch_cpus_10.iq.FU_type_0::FloatCmp            0      0.00%     77.81% # Type of FU issued
system.switch_cpus_10.iq.FU_type_0::FloatCvt          101      0.04%     77.85% # Type of FU issued
system.switch_cpus_10.iq.FU_type_0::FloatMult            0      0.00%     77.85% # Type of FU issued
system.switch_cpus_10.iq.FU_type_0::FloatMultAcc            0      0.00%     77.85% # Type of FU issued
system.switch_cpus_10.iq.FU_type_0::FloatDiv            0      0.00%     77.85% # Type of FU issued
system.switch_cpus_10.iq.FU_type_0::FloatMisc            0      0.00%     77.85% # Type of FU issued
system.switch_cpus_10.iq.FU_type_0::FloatSqrt            0      0.00%     77.85% # Type of FU issued
system.switch_cpus_10.iq.FU_type_0::SimdAdd           46      0.02%     77.86% # Type of FU issued
system.switch_cpus_10.iq.FU_type_0::SimdAddAcc            0      0.00%     77.86% # Type of FU issued
system.switch_cpus_10.iq.FU_type_0::SimdAlu          140      0.06%     77.92% # Type of FU issued
system.switch_cpus_10.iq.FU_type_0::SimdCmp            0      0.00%     77.92% # Type of FU issued
system.switch_cpus_10.iq.FU_type_0::SimdCvt          157      0.06%     77.98% # Type of FU issued
system.switch_cpus_10.iq.FU_type_0::SimdMisc          194      0.08%     78.06% # Type of FU issued
system.switch_cpus_10.iq.FU_type_0::SimdMult            0      0.00%     78.06% # Type of FU issued
system.switch_cpus_10.iq.FU_type_0::SimdMultAcc            0      0.00%     78.06% # Type of FU issued
system.switch_cpus_10.iq.FU_type_0::SimdShift           68      0.03%     78.09% # Type of FU issued
system.switch_cpus_10.iq.FU_type_0::SimdShiftAcc            0      0.00%     78.09% # Type of FU issued
system.switch_cpus_10.iq.FU_type_0::SimdDiv            0      0.00%     78.09% # Type of FU issued
system.switch_cpus_10.iq.FU_type_0::SimdSqrt            0      0.00%     78.09% # Type of FU issued
system.switch_cpus_10.iq.FU_type_0::SimdFloatAdd            0      0.00%     78.09% # Type of FU issued
system.switch_cpus_10.iq.FU_type_0::SimdFloatAlu            0      0.00%     78.09% # Type of FU issued
system.switch_cpus_10.iq.FU_type_0::SimdFloatCmp            0      0.00%     78.09% # Type of FU issued
system.switch_cpus_10.iq.FU_type_0::SimdFloatCvt            0      0.00%     78.09% # Type of FU issued
system.switch_cpus_10.iq.FU_type_0::SimdFloatDiv            0      0.00%     78.09% # Type of FU issued
system.switch_cpus_10.iq.FU_type_0::SimdFloatMisc            0      0.00%     78.09% # Type of FU issued
system.switch_cpus_10.iq.FU_type_0::SimdFloatMult            0      0.00%     78.09% # Type of FU issued
system.switch_cpus_10.iq.FU_type_0::SimdFloatMultAcc            0      0.00%     78.09% # Type of FU issued
system.switch_cpus_10.iq.FU_type_0::SimdFloatSqrt            0      0.00%     78.09% # Type of FU issued
system.switch_cpus_10.iq.FU_type_0::SimdReduceAdd            0      0.00%     78.09% # Type of FU issued
system.switch_cpus_10.iq.FU_type_0::SimdReduceAlu            0      0.00%     78.09% # Type of FU issued
system.switch_cpus_10.iq.FU_type_0::SimdReduceCmp            0      0.00%     78.09% # Type of FU issued
system.switch_cpus_10.iq.FU_type_0::SimdFloatReduceAdd            0      0.00%     78.09% # Type of FU issued
system.switch_cpus_10.iq.FU_type_0::SimdFloatReduceCmp            0      0.00%     78.09% # Type of FU issued
system.switch_cpus_10.iq.FU_type_0::SimdAes            0      0.00%     78.09% # Type of FU issued
system.switch_cpus_10.iq.FU_type_0::SimdAesMix            0      0.00%     78.09% # Type of FU issued
system.switch_cpus_10.iq.FU_type_0::SimdSha1Hash            0      0.00%     78.09% # Type of FU issued
system.switch_cpus_10.iq.FU_type_0::SimdSha1Hash2            0      0.00%     78.09% # Type of FU issued
system.switch_cpus_10.iq.FU_type_0::SimdSha256Hash            0      0.00%     78.09% # Type of FU issued
system.switch_cpus_10.iq.FU_type_0::SimdSha256Hash2            0      0.00%     78.09% # Type of FU issued
system.switch_cpus_10.iq.FU_type_0::SimdShaSigma2            0      0.00%     78.09% # Type of FU issued
system.switch_cpus_10.iq.FU_type_0::SimdShaSigma3            0      0.00%     78.09% # Type of FU issued
system.switch_cpus_10.iq.FU_type_0::SimdPredAlu            0      0.00%     78.09% # Type of FU issued
system.switch_cpus_10.iq.FU_type_0::MemRead        32241     12.95%     91.04% # Type of FU issued
system.switch_cpus_10.iq.FU_type_0::MemWrite        19988      8.03%     99.07% # Type of FU issued
system.switch_cpus_10.iq.FU_type_0::FloatMemRead         1288      0.52%     99.59% # Type of FU issued
system.switch_cpus_10.iq.FU_type_0::FloatMemWrite         1024      0.41%    100.00% # Type of FU issued
system.switch_cpus_10.iq.FU_type_0::IprAccess            0      0.00%    100.00% # Type of FU issued
system.switch_cpus_10.iq.FU_type_0::InstPrefetch            0      0.00%    100.00% # Type of FU issued
system.switch_cpus_10.iq.FU_type_0::total       248922                       # Type of FU issued
system.switch_cpus_10.iq.fp_alu_accesses         3419                       # Number of floating point alu accesses
system.switch_cpus_10.iq.fp_inst_queue_reads         6783                       # Number of floating instruction queue reads
system.switch_cpus_10.iq.fp_inst_queue_wakeup_accesses         2961                       # Number of floating instruction queue wakeup accesses
system.switch_cpus_10.iq.fp_inst_queue_writes         4612                       # Number of floating instruction queue writes
system.switch_cpus_10.iq.fu_busy_cnt             3013                       # FU busy when requested
system.switch_cpus_10.iq.fu_busy_rate        0.012104                       # FU busy rate (busy events/executed inst)
system.switch_cpus_10.iq.fu_full::No_OpClass            0      0.00%      0.00% # attempts to use FU when none available
system.switch_cpus_10.iq.fu_full::IntAlu         2623     87.06%     87.06% # attempts to use FU when none available
system.switch_cpus_10.iq.fu_full::IntMult            0      0.00%     87.06% # attempts to use FU when none available
system.switch_cpus_10.iq.fu_full::IntDiv            0      0.00%     87.06% # attempts to use FU when none available
system.switch_cpus_10.iq.fu_full::FloatAdd            0      0.00%     87.06% # attempts to use FU when none available
system.switch_cpus_10.iq.fu_full::FloatCmp            0      0.00%     87.06% # attempts to use FU when none available
system.switch_cpus_10.iq.fu_full::FloatCvt            0      0.00%     87.06% # attempts to use FU when none available
system.switch_cpus_10.iq.fu_full::FloatMult            0      0.00%     87.06% # attempts to use FU when none available
system.switch_cpus_10.iq.fu_full::FloatMultAcc            0      0.00%     87.06% # attempts to use FU when none available
system.switch_cpus_10.iq.fu_full::FloatDiv            0      0.00%     87.06% # attempts to use FU when none available
system.switch_cpus_10.iq.fu_full::FloatMisc            0      0.00%     87.06% # attempts to use FU when none available
system.switch_cpus_10.iq.fu_full::FloatSqrt            0      0.00%     87.06% # attempts to use FU when none available
system.switch_cpus_10.iq.fu_full::SimdAdd            0      0.00%     87.06% # attempts to use FU when none available
system.switch_cpus_10.iq.fu_full::SimdAddAcc            0      0.00%     87.06% # attempts to use FU when none available
system.switch_cpus_10.iq.fu_full::SimdAlu            1      0.03%     87.09% # attempts to use FU when none available
system.switch_cpus_10.iq.fu_full::SimdCmp            0      0.00%     87.09% # attempts to use FU when none available
system.switch_cpus_10.iq.fu_full::SimdCvt           11      0.37%     87.45% # attempts to use FU when none available
system.switch_cpus_10.iq.fu_full::SimdMisc            0      0.00%     87.45% # attempts to use FU when none available
system.switch_cpus_10.iq.fu_full::SimdMult            0      0.00%     87.45% # attempts to use FU when none available
system.switch_cpus_10.iq.fu_full::SimdMultAcc            0      0.00%     87.45% # attempts to use FU when none available
system.switch_cpus_10.iq.fu_full::SimdShift            0      0.00%     87.45% # attempts to use FU when none available
system.switch_cpus_10.iq.fu_full::SimdShiftAcc            0      0.00%     87.45% # attempts to use FU when none available
system.switch_cpus_10.iq.fu_full::SimdDiv            0      0.00%     87.45% # attempts to use FU when none available
system.switch_cpus_10.iq.fu_full::SimdSqrt            0      0.00%     87.45% # attempts to use FU when none available
system.switch_cpus_10.iq.fu_full::SimdFloatAdd            0      0.00%     87.45% # attempts to use FU when none available
system.switch_cpus_10.iq.fu_full::SimdFloatAlu            0      0.00%     87.45% # attempts to use FU when none available
system.switch_cpus_10.iq.fu_full::SimdFloatCmp            0      0.00%     87.45% # attempts to use FU when none available
system.switch_cpus_10.iq.fu_full::SimdFloatCvt            0      0.00%     87.45% # attempts to use FU when none available
system.switch_cpus_10.iq.fu_full::SimdFloatDiv            0      0.00%     87.45% # attempts to use FU when none available
system.switch_cpus_10.iq.fu_full::SimdFloatMisc            0      0.00%     87.45% # attempts to use FU when none available
[...]
system.cpu1.l2cache.tags.pwrStateResidencyTicks::UNDEFINED 1321357219116                       # Cumulative time (in ticks) in various power states
system.cpu1.l2cache.tags.tagsinuse          78.882357                       # Cycle average of tags in use
system.cpu1.l2cache.tags.total_refs            113118                       # Total number of references to valid blocks.
system.cpu1.l2cache.tags.sampled_refs           30343                       # Sample count of references to valid blocks.
system.cpu1.l2cache.tags.avg_refs            3.727977                       # Average number of references to valid blocks.
system.cpu1.l2cache.tags.warmup_cycle    1293351708033                       # Cycle when the warmup percentage was hit.
system.cpu1.l2cache.tags.occ_blocks::.cpu1.inst     0.003789                       # Average occupied blocks per requestor
system.cpu1.l2cache.tags.occ_blocks::.cpu1.data     0.021195                       # Average occupied blocks per requestor
system.cpu1.l2cache.tags.occ_blocks::.switch_cpus1.inst     0.715958                       # Average occupied blocks per requestor
system.cpu1.l2cache.tags.occ_blocks::.switch_cpus1.data    11.254889                       # Average occupied blocks per requestor
system.cpu1.l2cache.tags.occ_blocks::.switch_cpus_11.inst     0.192333                       # Average occupied blocks per requestor
system.cpu1.l2cache.tags.occ_blocks::.switch_cpus_11.data    66.694194                       # Average occupied blocks per requestor
system.cpu1.l2cache.tags.occ_percent::.cpu1.inst     0.000001                       # Average percentage of cache occupancy
system.cpu1.l2cache.tags.occ_percent::.cpu1.data     0.000005                       # Average percentage of cache occupancy
system.cpu1.l2cache.tags.occ_percent::.switch_cpus1.inst     0.000175                       # Average percentage of cache occupancy
system.cpu1.l2cache.tags.occ_percent::.switch_cpus1.data     0.002748                       # Average percentage of cache occupancy
system.cpu1.l2cache.tags.occ_percent::.switch_cpus_11.inst     0.000047                       # Average percentage of cache occupancy
system.cpu1.l2cache.tags.occ_percent::.switch_cpus_11.data     0.016283                       # Average percentage of cache occupancy
system.cpu1.l2cache.tags.occ_percent::total     0.019258                       # Average percentage of cache occupancy
system.cpu1.l2cache.tags.occ_task_id_blocks::1024         4096                       # Occupied blocks per task id
system.cpu1.l2cache.tags.age_task_id_blocks_1024::0           15                       # Occupied blocks per task id
system.cpu1.l2cache.tags.age_task_id_blocks_1024::1           59                       # Occupied blocks per task id
system.cpu1.l2cache.tags.age_task_id_blocks_1024::2         1041                       # Occupied blocks per task id
system.cpu1.l2cache.tags.age_task_id_blocks_1024::3         2472                       # Occupied blocks per task id
system.cpu1.l2cache.tags.age_task_id_blocks_1024::4          509                       # Occupied blocks per task id
system.cpu1.l2cache.tags.occ_task_id_percent::1024            1                       # Percentage of cache occupancy per task id
system.cpu1.l2cache.tags.tag_accesses         1840327                       # Number of tag accesses
system.cpu1.l2cache.tags.data_accesses        1840327                       # Number of data accesses
system.cpu1.toL2Bus.pwrStateResidencyTicks::UNDEFINED 1321357219116                       # Cumulative time (in ticks) in various power states
system.cpu1.toL2Bus.trans_dist::ReadResp        56833                       # Transaction distribution
system.cpu1.toL2Bus.trans_dist::WritebackDirty          185                       # Transaction distribution
system.cpu1.toL2Bus.trans_dist::CleanEvict        82480                       # Transaction distribution
system.cpu1.toL2Bus.trans_dist::ReadExReq          148                       # Transaction distribution
system.cpu1.toL2Bus.trans_dist::ReadExResp          148                       # Transaction distribution
system.cpu1.toL2Bus.trans_dist::ReadCleanReq          286                       # Transaction distribution
system.cpu1.toL2Bus.trans_dist::ReadSharedReq        56547                       # Transaction distribution
system.cpu1.toL2Bus.pkt_count_system.cpu1.icache.mem_side::system.cpu1.l2cache.cpu_side          572                       # Packet count per connected master and slave (bytes)
system.cpu1.toL2Bus.pkt_count_system.cpu1.dcache.mem_side::system.cpu1.l2cache.cpu_side       169573                       # Packet count per connected master and slave (bytes)
system.cpu1.toL2Bus.pkt_count::total           170145                       # Packet count per connected master and slave (bytes)
system.cpu1.toL2Bus.pkt_size_system.cpu1.icache.mem_side::system.cpu1.l2cache.cpu_side        18304                       # Cumulative packet size per connected master and slave (bytes)
system.cpu1.toL2Bus.pkt_size_system.cpu1.dcache.mem_side::system.cpu1.l2cache.cpu_side      3639808                       # Cumulative packet size per connected master and slave (bytes)
system.cpu1.toL2Bus.pkt_size::total           3658112                       # Cumulative packet size per connected master and slave (bytes)
system.cpu1.toL2Bus.snoops                      26482                       # Total snoops (count)
system.cpu1.toL2Bus.snoopTraffic                  512                       # Total snoop traffic (bytes)
system.cpu1.toL2Bus.snoop_fanout::samples        83463                       # Request fanout histogram
system.cpu1.toL2Bus.snoop_fanout::mean       0.006470                       # Request fanout histogram
system.cpu1.toL2Bus.snoop_fanout::stdev      0.080176                       # Request fanout histogram
system.cpu1.toL2Bus.snoop_fanout::underflows            0      0.00%      0.00% # Request fanout histogram
system.cpu1.toL2Bus.snoop_fanout::0             82923     99.35%     99.35% # Request fanout histogram
system.cpu1.toL2Bus.snoop_fanout::1               540      0.65%    100.00% # Request fanout histogram
system.cpu1.toL2Bus.snoop_fanout::2                 0      0.00%    100.00% # Request fanout histogram
system.cpu1.toL2Bus.snoop_fanout::3                 0      0.00%    100.00% # Request fanout histogram
system.cpu1.toL2Bus.snoop_fanout::4                 0      0.00%    100.00% # Request fanout histogram
system.cpu1.toL2Bus.snoop_fanout::overflows            0      0.00%    100.00% # Request fanout histogram
system.cpu1.toL2Bus.snoop_fanout::min_value            0                       # Request fanout histogram
system.cpu1.toL2Bus.snoop_fanout::max_value            1                       # Request fanout histogram
system.cpu1.toL2Bus.snoop_fanout::total         83463                       # Request fanout histogram
system.cpu1.toL2Bus.reqLayer0.occupancy      47336172                       # Layer occupancy (ticks)
system.cpu1.toL2Bus.reqLayer0.utilization          0.2                       # Layer utilization (%)
system.cpu1.toL2Bus.respLayer1.occupancy     70924194                       # Layer occupancy (ticks)
system.cpu1.toL2Bus.respLayer1.utilization          0.3                       # Layer utilization (%)
system.cpu1.toL2Bus.respLayer0.occupancy       356535                       # Layer occupancy (ticks)
system.cpu1.toL2Bus.respLayer0.utilization          0.0                       # Layer utilization (%)
system.switch_cpus_10.numPwrStateTransitions            1                       # Number of power state transitions
system.switch_cpus_10.pwrStateClkGateDist::samples            1                       # Distribution of time spent in the clock gated state
system.switch_cpus_10.pwrStateClkGateDist::mean  25616906727                       # Distribution of time spent in the clock gated state
system.switch_cpus_10.pwrStateClkGateDist::1000-5e+10            1    100.00%    100.00% # Distribution of time spent in the clock gated state
system.switch_cpus_10.pwrStateClkGateDist::min_value  25616906727                       # Distribution of time spent in the clock gated state
system.switch_cpus_10.pwrStateClkGateDist::max_value  25616906727                       # Distribution of time spent in the clock gated state
system.switch_cpus_10.pwrStateClkGateDist::total            1                       # Distribution of time spent in the clock gated state
system.switch_cpus_10.pwrStateResidencyTicks::CLK_GATED  25616906727                       # Cumulative time (in ticks) in various power states
system.switch_cpus_10.pwrStateResidencyTicks::OFF   2388604773                       # Cumulative time (in ticks) in various power states
system.switch_cpus_10.dtb.walker.pwrStateResidencyTicks::UNDEFINED 1321357219116                       # Cumulative time (in ticks) in various power states
system.switch_cpus_10.itb.walker.pwrStateResidencyTicks::UNDEFINED 1321357219116                       # Cumulative time (in ticks) in various power states
system.switch_cpus_11.pwrStateResidencyTicks::OFF  28005511500                       # Cumulative time (in ticks) in various power states
system.switch_cpus_11.dtb.walker.pwrStateResidencyTicks::UNDEFINED 1321357219116                       # Cumulative time (in ticks) in various power states
system.switch_cpus_11.itb.walker.pwrStateResidencyTicks::UNDEFINED 1321357219116                       # Cumulative time (in ticks) in various power states
system.cpu_voltage_domain.voltage                   1                       # Voltage in Volts
system.switch_cpus1.numPwrStateTransitions            1                       # Number of power state transitions
system.switch_cpus1.pwrStateResidencyTicks::UNDEFINED 1293351707616                       # Cumulative time (in ticks) in various power states
system.switch_cpus1.pwrStateResidencyTicks::OFF  28005511500                       # Cumulative time (in ticks) in various power states
system.switch_cpus1.dtb.walker.pwrStateResidencyTicks::UNDEFINED 1321357219116                       # Cumulative time (in ticks) in various power states
system.switch_cpus1.itb.walker.pwrStateResidencyTicks::UNDEFINED 1321357219116                       # Cumulative time (in ticks) in various power states
system.mem_ctrls.pwrStateResidencyTicks::UNDEFINED 1321357219116                       # Cumulative time (in ticks) in various power states
system.mem_ctrls.bytes_read::.cpu0.inst            64                       # Number of bytes read from this memory
system.mem_ctrls.bytes_read::.cpu0.data            64                       # Number of bytes read from this memory
system.mem_ctrls.bytes_read::.cpu1.inst            64                       # Number of bytes read from this memory
system.mem_ctrls.bytes_read::.cpu1.data            64                       # Number of bytes read from this memory
system.mem_ctrls.bytes_read::.switch_cpus0.inst         9024                       # Number of bytes read from this memory
system.mem_ctrls.bytes_read::.switch_cpus0.data        10624                       # Number of bytes read from this memory
system.mem_ctrls.bytes_read::.switch_cpus1.inst        12672                       # Number of bytes read from this memory
system.mem_ctrls.bytes_read::.switch_cpus1.data        76672                       # Number of bytes read from this memory
system.mem_ctrls.bytes_read::.switch_cpus_10.inst        30848                       # Number of bytes read from this memory
system.mem_ctrls.bytes_read::.switch_cpus_10.data        22592                       # Number of bytes read from this memory
system.mem_ctrls.bytes_read::.switch_cpus_11.inst         5568                       # Number of bytes read from this memory
system.mem_ctrls.bytes_read::.switch_cpus_11.data      1845568                       # Number of bytes read from this memory
system.mem_ctrls.bytes_read::total            2013824                       # Number of bytes read from this memory
system.mem_ctrls.bytes_inst_read::.cpu0.inst           64                       # Number of instructions bytes read from this memory
system.mem_ctrls.bytes_inst_read::.cpu1.inst           64                       # Number of instructions bytes read from this memory
system.mem_ctrls.bytes_inst_read::.switch_cpus0.inst         9024                       # Number of instructions bytes read from this memory
system.mem_ctrls.bytes_inst_read::.switch_cpus1.inst        12672                       # Number of instructions bytes read from this memory
system.mem_ctrls.bytes_inst_read::.switch_cpus_10.inst        30848                       # Number of instructions bytes read from this memory
system.mem_ctrls.bytes_inst_read::.switch_cpus_11.inst         5568                       # Number of instructions bytes read from this memory
system.mem_ctrls.bytes_inst_read::total         58240                       # Number of instructions bytes read from this memory
system.mem_ctrls.bytes_written::.switch_cpus1.data           64                       # Number of bytes written to this memory
system.mem_ctrls.bytes_written::total              64                       # Number of bytes written to this memory
system.mem_ctrls.num_reads::.cpu0.inst              1                       # Number of read requests responded to by this memory
system.mem_ctrls.num_reads::.cpu0.data              1                       # Number of read requests responded to by this memory
system.mem_ctrls.num_reads::.cpu1.inst              1                       # Number of read requests responded to by this memory
system.mem_ctrls.num_reads::.cpu1.data              1                       # Number of read requests responded to by this memory
system.mem_ctrls.num_reads::.switch_cpus0.inst          141                       # Number of read requests responded to by this memory
system.mem_ctrls.num_reads::.switch_cpus0.data          166                       # Number of read requests responded to by this memory
system.mem_ctrls.num_reads::.switch_cpus1.inst          198                       # Number of read requests responded to by this memory
system.mem_ctrls.num_reads::.switch_cpus1.data         1198                       # Number of read requests responded to by this memory
system.mem_ctrls.num_reads::.switch_cpus_10.inst          482                       # Number of read requests responded to by this memory
system.mem_ctrls.num_reads::.switch_cpus_10.data          353                       # Number of read requests responded to by this memory
system.mem_ctrls.num_reads::.switch_cpus_11.inst           87                       # Number of read requests responded to by this memory
system.mem_ctrls.num_reads::.switch_cpus_11.data        28837                       # Number of read requests responded to by this memory
system.mem_ctrls.num_reads::total               31466                       # Number of read requests responded to by this memory
system.mem_ctrls.num_writes::.switch_cpus1.data            1                       # Number of write requests responded to by this memory
system.mem_ctrls.num_writes::total                  1                       # Number of write requests responded to by this memory
system.mem_ctrls.bw_read::.cpu0.inst             2285                       # Total read bandwidth from this memory (bytes/s)
system.mem_ctrls.bw_read::.cpu0.data             2285                       # Total read bandwidth from this memory (bytes/s)
system.mem_ctrls.bw_read::.cpu1.inst             2285                       # Total read bandwidth from this memory (bytes/s)
system.mem_ctrls.bw_read::.cpu1.data             2285                       # Total read bandwidth from this memory (bytes/s)
system.mem_ctrls.bw_read::.switch_cpus0.inst       322222                       # Total read bandwidth from this memory (bytes/s)
system.mem_ctrls.bw_read::.switch_cpus0.data       379354                       # Total read bandwidth from this memory (bytes/s)
system.mem_ctrls.bw_read::.switch_cpus1.inst       452482                       # Total read bandwidth from this memory (bytes/s)
system.mem_ctrls.bw_read::.switch_cpus1.data      2737747                       # Total read bandwidth from this memory (bytes/s)
system.mem_ctrls.bw_read::.switch_cpus_10.inst      1101497                       # Total read bandwidth from this memory (bytes/s)
system.mem_ctrls.bw_read::.switch_cpus_10.data       806698                       # Total read bandwidth from this memory (bytes/s)
system.mem_ctrls.bw_read::.switch_cpus_11.inst       198818                       # Total read bandwidth from this memory (bytes/s)
system.mem_ctrls.bw_read::.switch_cpus_11.data     65900171                       # Total read bandwidth from this memory (bytes/s)
system.mem_ctrls.bw_read::total              71908131                       # Total read bandwidth from this memory (bytes/s)
system.mem_ctrls.bw_inst_read::.cpu0.inst         2285                       # Instruction read bandwidth from this memory (bytes/s)
system.mem_ctrls.bw_inst_read::.cpu1.inst         2285                       # Instruction read bandwidth from this memory (bytes/s)
system.mem_ctrls.bw_inst_read::.switch_cpus0.inst       322222                       # Instruction read bandwidth from this memory (bytes/s)
system.mem_ctrls.bw_inst_read::.switch_cpus1.inst       452482                       # Instruction read bandwidth from this memory (bytes/s)
system.mem_ctrls.bw_inst_read::.switch_cpus_10.inst      1101497                       # Instruction read bandwidth from this memory (bytes/s)
system.mem_ctrls.bw_inst_read::.switch_cpus_11.inst       198818                       # Instruction read bandwidth from this memory (bytes/s)
system.mem_ctrls.bw_inst_read::total          2079591                       # Instruction read bandwidth from this memory (bytes/s)
system.mem_ctrls.bw_write::.switch_cpus1.data         2285                       # Write bandwidth from this memory (bytes/s)
system.mem_ctrls.bw_write::total                 2285                       # Write bandwidth from this memory (bytes/s)
system.mem_ctrls.bw_total::.cpu0.inst            2285                       # Total bandwidth to/from this memory (bytes/s)
system.mem_ctrls.bw_total::.cpu0.data            2285                       # Total bandwidth to/from this memory (bytes/s)
system.mem_ctrls.bw_total::.cpu1.inst            2285                       # Total bandwidth to/from this memory (bytes/s)
system.mem_ctrls.bw_total::.cpu1.data            2285                       # Total bandwidth to/from this memory (bytes/s)
system.mem_ctrls.bw_total::.switch_cpus0.inst       322222                       # Total bandwidth to/from this memory (bytes/s)
system.mem_ctrls.bw_total::.switch_cpus0.data       379354                       # Total bandwidth to/from this memory (bytes/s)
system.mem_ctrls.bw_total::.switch_cpus1.inst       452482                       # Total bandwidth to/from this memory (bytes/s)
system.mem_ctrls.bw_total::.switch_cpus1.data      2740032                       # Total bandwidth to/from this memory (bytes/s)
system.mem_ctrls.bw_total::.switch_cpus_10.inst      1101497                       # Total bandwidth to/from this memory (bytes/s)
system.mem_ctrls.bw_total::.switch_cpus_10.data       806698                       # Total bandwidth to/from this memory (bytes/s)
system.mem_ctrls.bw_total::.switch_cpus_11.inst       198818                       # Total bandwidth to/from this memory (bytes/s)
system.mem_ctrls.bw_total::.switch_cpus_11.data     65900171                       # Total bandwidth to/from this memory (bytes/s)
system.mem_ctrls.bw_total::total             71910417                       # Total bandwidth to/from this memory (bytes/s)
system.cpu_clk_domain.clock                       417                       # Clock period in ticks

---------- End Simulation Statistics   ----------
