
---------- Begin Simulation Statistics ----------
final_tick                               1321847503947                       # Number of ticks from beginning of simulation (restored from checkpoints and never reset)
host_inst_rate                                 140206                       # Simulator instruction rate (inst/s)
host_mem_usage                                4710728                       # Number of bytes of host memory used
host_op_rate                                   252676                       # Simulator op (including micro ops) rate (op/s)
host_seconds                                   653.33                       # Real time elapsed on the host
host_tick_rate                               43616565                       # Simulator tick rate (ticks/s)
sim_freq                                 1000000000000                       # Frequency of simulated ticks
sim_insts                                    91599841                       # Number of instructions simulated
sim_ops                                     165079536                       # Number of ops (including micro ops) simulated
sim_seconds                                  0.028496                       # Number of seconds simulated
sim_ticks                                 28495796331                       # Number of ticks simulated
system.cpu0.committedInsts                          2                       # Number of instructions committed
system.cpu0.committedOps                            4                       # Number of ops (including micro ops) committed
system.cpu0.dtb.rdAccesses                          0                       # TLB accesses on read requests
system.cpu0.dtb.rdMisses                            0                       # TLB misses on read requests
system.cpu0.dtb.wrAccesses                          0                       # TLB accesses on write requests
system.cpu0.dtb.wrMisses                            0                       # TLB misses on write requests
system.cpu0.idle_fraction                           0                       # Percentage of idle cycles
system.cpu0.itb.rdAccesses                          0                       # TLB accesses on read requests
system.cpu0.itb.rdMisses                            0                       # TLB misses on read requests
system.cpu0.itb.wrAccesses                          3                       # TLB accesses on write requests
system.cpu0.itb.wrMisses                            0                       # TLB misses on write requests
system.cpu0.not_idle_fraction                       1                       # Percentage of non-idle cycles
system.cpu0.numCycles                               5                       # number of cpu cycles simulated
system.cpu0.numWorkItemsCompleted                   0                       # number of work items this cpu completed
system.cpu0.numWorkItemsStarted                     0                       # number of work items this cpu started
system.cpu0.num_busy_cycles                         5                       # Number of busy cycles
system.cpu0.num_cc_register_writes                  2                       # number of times the CC registers were written
system.cpu0.num_conditional_control_insts            0                       # number of instructions that are conditional controls
system.cpu0.num_fp_alu_accesses                     0                       # Number of float alu accesses
system.cpu0.num_fp_insts                            0                       # number of float instructions
system.cpu0.num_fp_register_reads                   0                       # number of times the floating registers were read
system.cpu0.num_fp_register_writes                  0                       # number of times the floating registers were written
system.cpu0.num_func_calls                          0                       # number of times a function call or return occured
system.cpu0.num_idle_cycles                         0                       # Number of idle cycles
system.cpu0.num_int_alu_accesses                    4                       # Number of integer alu accesses
system.cpu0.num_int_insts                           4                       # number of integer instructions
system.cpu0.num_int_register_reads                  6                       # number of times the integer registers were read
system.cpu0.num_int_register_writes                 4                       # number of times the integer registers were written
system.cpu0.num_load_insts                          0                       # Number of load instructions
system.cpu0.num_mem_refs                            0                       # number of memory refs
system.cpu0.num_store_insts                         0                       # Number of store instructions
system.cpu0.num_vec_alu_accesses                    0                       # Number of vector alu accesses
system.cpu0.num_vec_insts                           0                       # number of vector instructions
system.cpu0.num_vec_register_reads                  0                       # number of times the vector registers were read
system.cpu0.num_vec_register_writes                 0                       # number of times the vector registers were written
system.cpu0.op_class::No_OpClass                    0      0.00%      0.00% # Class of executed instruction
system.cpu0.op_class::IntAlu                        4    100.00%    100.00% # Class of executed instruction
system.cpu0.op_class::IntMult                       0      0.00%    100.00% # Class of executed instruction
system.cpu0.op_class::IntDiv                        0      0.00%    100.00% # Class of executed instruction
system.cpu0.op_class::FloatAdd                      0      0.00%    100.00% # Class of executed instruction
system.cpu0.op_class::FloatCmp                      0      0.00%    100.00% # Class of executed instruction
system.cpu0.op_class::FloatCvt                      0      0.00%    100.00% # Class of executed instruction
system.cpu0.op_class::FloatMult                     0      0.00%    100.00% # Class of executed instruction
system.cpu0.op_class::FloatMultAcc                  0      0.00%    100.00% # Class of executed instruction
system.cpu0.op_class::FloatDiv                      0      0.00%    100.00% # Class of executed instruction
system.cpu0.op_class::FloatMisc                     0      0.00%    100.00% # Class of executed instruction
system.cpu0.op_class::FloatSqrt                     0      0.00%    100.00% # Class of executed instruction
system.cpu0.op_class::SimdAdd                       0      0.00%    100.00% # Class of executed instruction
system.cpu0.op_class::SimdAddAcc                    0      0.00%    100.00% # Class of executed instruction
system.cpu0.op_class::SimdAlu                       0      0.00%    100.00% # Class of executed instruction
system.cpu0.op_class::SimdCmp                       0      0.00%    100.00% # Class of executed instruction
system.cpu0.op_class::SimdCvt                       0      0.00%    100.00% # Class of executed instruction
system.cpu0.op_class::SimdMisc                      0      0.00%    100.00% # Class of executed instruction
system.cpu0.op_class::SimdMult                      0      0.00%    100.00% # Class of executed instruction
system.cpu0.op_class::SimdMultAcc                   0      0.00%    100.00% # Class of executed instruction
system.cpu0.op_class::SimdShift                     0      0.00%    100.00% # Class of executed instruction
system.cpu0.op_class::SimdShiftAcc                  0      0.00%    100.00% # Class of executed instruction
system.cpu0.op_class::SimdDiv                       0      0.00%    100.00% # Class of executed instruction
system.cpu0.op_class::SimdSqrt                      0      0.00%    100.00% # Class of executed instruction
system.cpu0.op_class::SimdFloatAdd                  0      0.00%    100.00% # Class of executed instruction
system.cpu0.op_class::SimdFloatAlu                  0      0.00%    100.00% # Class of executed instruction
system.cpu0.op_class::SimdFloatCmp                  0      0.00%    100.00% # Class of executed instruction
system.cpu0.op_class::SimdFloatCvt                  0      0.00%    100.00% # Class of executed instruction
system.cpu0.op_class::SimdFloatDiv                  0      0.00%    100.00% # Class of executed instruction
system.cpu0.op_class::SimdFloatMisc                 0      0.00%    100.00% # Class of executed instruction
system.cpu0.op_class::SimdFloatMult                 0      0.00%    100.00% # Class of executed instruction
system.cpu0.op_class::SimdFloatMultAcc              0      0.00%    100.00% # Class of executed instruction
system.cpu0.op_class::SimdFloatSqrt                 0      0.00%    100.00% # Class of executed instruction
system.cpu0.op_class::SimdReduceAdd                 0      0.00%    100.00% # Class of executed instruction
system.cpu0.op_class::SimdReduceAlu                 0      0.00%    100.00% # Class of executed instruction
system.cpu0.op_class::SimdReduceCmp                 0      0.00%    100.00% # Class of executed instruction
system.cpu0.op_class::SimdFloatReduceAdd            0      0.00%    100.00% # Class of executed instruction
system.cpu0.op_class::SimdFloatReduceCmp            0      0.00%    100.00% # Class of executed instruction
system.cpu0.op_class::SimdAes                       0      0.00%    100.00% # Class of executed instruction
system.cpu0.op_class::SimdAesMix                    0      0.00%    100.00% # Class of executed instruction
system.cpu0.op_class::SimdSha1Hash                  0      0.00%    100.00% # Class of executed instruction
system.cpu0.op_class::SimdSha1Hash2                 0      0.00%    100.00% # Class of executed instruction
system.cpu0.op_class::SimdSha256Hash                0      0.00%    100.00% # Class of executed instruction
system.cpu0.op_class::SimdSha256Hash2               0      0.00%    100.00% # Class of executed instruction
system.cpu0.op_class::SimdShaSigma2                 0      0.00%    100.00% # Class of executed instruction
system.cpu0.op_class::SimdShaSigma3                 0      0.00%    100.00% # Class of executed instruction
system.cpu0.op_class::SimdPredAlu                   0      0.00%    100.00% # Class of executed instruction
system.cpu0.op_class::MemRead                       0      0.00%    100.00% # Class of executed instruction
system.cpu0.op_class::MemWrite                      0      0.00%    100.00% # Class of executed instruction
system.cpu0.op_class::FloatMemRead                  0      0.00%    100.00% # Class of executed instruction
system.cpu0.op_class::FloatMemWrite                 0      0.00%    100.00% # Class of executed instruction
system.cpu0.op_class::IprAccess                     0      0.00%    100.00% # Class of executed instruction
system.cpu0.op_class::InstPrefetch                  0      0.00%    100.00% # Class of executed instruction
system.cpu0.op_class::total                         4                       # Class of executed instruction
system.cpu0.toL2Bus.snoop_filter.hit_multi_requests          281                       # Number of requests hitting in the snoop filter with multiple (>1) holders of the requested data.
system.cpu0.toL2Bus.snoop_filter.hit_multi_snoops            5                       # Number of snoops hitting in the snoop filter with multiple (>1) holders of the requested data.
system.cpu0.toL2Bus.snoop_filter.hit_single_requests       324160                       # Number of requests hitting in the snoop filter with a single holder of the requested data.
system.cpu0.toL2Bus.snoop_filter.hit_single_snoops         2044                       # Number of snoops hitting in the snoop filter with a single holder of the requested data.
system.cpu0.toL2Bus.snoop_filter.tot_requests       648643                       # Total number of requests made to the snoop filter.
system.cpu0.toL2Bus.snoop_filter.tot_snoops         2049                       # Total number of snoops made to the snoop filter.
system.cpu0.toL3Bus.snoop_filter.hit_multi_requests            0                       # Number of requests hitting in the snoop filter with multiple (>1) holders of the requested data.
system.cpu0.toL3Bus.snoop_filter.hit_multi_snoops            0                       # Number of snoops hitting in the snoop filter with multiple (>1) holders of the requested data.
system.cpu0.toL3Bus.snoop_filter.hit_single_requests       212743                       # Number of requests hitting in the snoop filter with a single holder of the requested data.
system.cpu0.toL3Bus.snoop_filter.hit_single_snoops          522                       # Number of snoops hitting in the snoop filter with a single holder of the requested data.
system.cpu0.toL3Bus.snoop_filter.tot_requests       430096                       # Total number of requests made to the snoop filter.
system.cpu0.toL3Bus.snoop_filter.tot_snoops          522                       # Total number of snoops made to the snoop filter.
system.cpu0.workload.numSyscalls                  229                       # Number of system calls
system.cpu1.Branches                                1                       # Number of branches fetched
system.cpu1.committedInsts                          1                       # Number of instructions committed
system.cpu1.committedOps                            5                       # Number of ops (including micro ops) committed
system.cpu1.dtb.rdAccesses                          0                       # TLB accesses on read requests
system.cpu1.dtb.rdMisses                            0                       # TLB misses on read requests
system.cpu1.dtb.wrAccesses                          1                       # TLB accesses on write requests
system.cpu1.dtb.wrMisses                            0                       # TLB misses on write requests
system.cpu1.idle_fraction                           0                       # Percentage of idle cycles
system.cpu1.itb.rdAccesses                          0                       # TLB accesses on read requests
system.cpu1.itb.rdMisses                            0                       # TLB misses on read requests
system.cpu1.itb.wrAccesses                          2                       # TLB accesses on write requests
system.cpu1.itb.wrMisses                            0                       # TLB misses on write requests
system.cpu1.not_idle_fraction                       1                       # Percentage of non-idle cycles
system.cpu1.numCycles                               6                       # number of cpu cycles simulated
system.cpu1.numWorkItemsCompleted                   0                       # number of work items this cpu completed
system.cpu1.numWorkItemsStarted                     0                       # number of work items this cpu started
system.cpu1.num_busy_cycles                         6                       # Number of busy cycles
system.cpu1.num_conditional_control_insts            0                       # number of instructions that are conditional controls
system.cpu1.num_fp_alu_accesses                     0                       # Number of float alu accesses
system.cpu1.num_fp_insts                            0                       # number of float instructions
system.cpu1.num_fp_register_reads                   0                       # number of times the floating registers were read
system.cpu1.num_fp_register_writes                  0                       # number of times the floating registers were written
system.cpu1.num_func_calls                          1                       # number of times a function call or return occured
system.cpu1.num_idle_cycles                         0                       # Number of idle cycles
system.cpu1.num_int_alu_accesses                    5                       # Number of integer alu accesses
system.cpu1.num_int_insts                           5                       # number of integer instructions
system.cpu1.num_int_register_reads                  9                       # number of times the integer registers were read
system.cpu1.num_int_register_writes                 3                       # number of times the integer registers were written
system.cpu1.num_load_insts                          0                       # Number of load instructions
system.cpu1.num_mem_refs                            1                       # number of memory refs
system.cpu1.num_store_insts                         1                       # Number of store instructions
system.cpu1.num_vec_alu_accesses                    0                       # Number of vector alu accesses
system.cpu1.num_vec_insts                           0                       # number of vector instructions
system.cpu1.num_vec_register_reads                  0                       # number of times the vector registers were read
system.cpu1.num_vec_register_writes                 0                       # number of times the vector registers were written
system.cpu1.op_class::No_OpClass                    0      0.00%      0.00% # Class of executed instruction
system.cpu1.op_class::IntAlu                        4     80.00%     80.00% # Class of executed instruction
system.cpu1.op_class::IntMult                       0      0.00%     80.00% # Class of executed instruction
system.cpu1.op_class::IntDiv                        0      0.00%     80.00% # Class of executed instruction
system.cpu1.op_class::FloatAdd                      0      0.00%     80.00% # Class of executed instruction
system.cpu1.op_class::FloatCmp                      0      0.00%     80.00% # Class of executed instruction
system.cpu1.op_class::FloatCvt                      0      0.00%     80.00% # Class of executed instruction
system.cpu1.op_class::FloatMult                     0      0.00%     80.00% # Class of executed instruction
system.cpu1.op_class::FloatMultAcc                  0      0.00%     80.00% # Class of executed instruction
system.cpu1.op_class::FloatDiv                      0      0.00%     80.00% # Class of executed instruction
system.cpu1.op_class::FloatMisc                     0      0.00%     80.00% # Class of executed instruction
system.cpu1.op_class::FloatSqrt                     0      0.00%     80.00% # Class of executed instruction
system.cpu1.op_class::SimdAdd                       0      0.00%     80.00% # Class of executed instruction
system.cpu1.op_class::SimdAddAcc                    0      0.00%     80.00% # Class of executed instruction
system.cpu1.op_class::SimdAlu                       0      0.00%     80.00% # Class of executed instruction
system.cpu1.op_class::SimdCmp                       0      0.00%     80.00% # Class of executed instruction
system.cpu1.op_class::SimdCvt                       0      0.00%     80.00% # Class of executed instruction
system.cpu1.op_class::SimdMisc                      0      0.00%     80.00% # Class of executed instruction
system.cpu1.op_class::SimdMult                      0      0.00%     80.00% # Class of executed instruction
system.cpu1.op_class::SimdMultAcc                   0      0.00%     80.00% # Class of executed instruction
system.cpu1.op_class::SimdShift                     0      0.00%     80.00% # Class of executed instruction
system.cpu1.op_class::SimdShiftAcc                  0      0.00%     80.00% # Class of executed instruction
system.cpu1.op_class::SimdDiv                       0      0.00%     80.00% # Class of executed instruction
system.cpu1.op_class::SimdSqrt                      0      0.00%     80.00% # Class of executed instruction
system.cpu1.op_class::SimdFloatAdd                  0      0.00%     80.00% # Class of executed instruction
system.cpu1.op_class::SimdFloatAlu                  0      0.00%     80.00% # Class of executed instruction
system.cpu1.op_class::SimdFloatCmp                  0      0.00%     80.00% # Class of executed instruction
system.cpu1.op_class::SimdFloatCvt                  0      0.00%     80.00% # Class of executed instruction
system.cpu1.op_class::SimdFloatDiv                  0      0.00%     80.00% # Class of executed instruction
system.cpu1.op_class::SimdFloatMisc                 0      0.00%     80.00% # Class of executed instruction
system.cpu1.op_class::SimdFloatMult                 0      0.00%     80.00% # Class of executed instruction
system.cpu1.op_class::SimdFloatMultAcc              0      0.00%     80.00% # Class of executed instruction
system.cpu1.op_class::SimdFloatSqrt                 0      0.00%     80.00% # Class of executed instruction
system.cpu1.op_class::SimdReduceAdd                 0      0.00%     80.00% # Class of executed instruction
system.cpu1.op_class::SimdReduceAlu                 0      0.00%     80.00% # Class of executed instruction
system.cpu1.op_class::SimdReduceCmp                 0      0.00%     80.00% # Class of executed instruction
system.cpu1.op_class::SimdFloatReduceAdd            0      0.00%     80.00% # Class of executed instruction
system.cpu1.op_class::SimdFloatReduceCmp            0      0.00%     80.00% # Class of executed instruction
system.cpu1.op_class::SimdAes                       0      0.00%     80.00% # Class of executed instruction
system.cpu1.op_class::SimdAesMix                    0      0.00%     80.00% # Class of executed instruction
system.cpu1.op_class::SimdSha1Hash                  0      0.00%     80.00% # Class of executed instruction
system.cpu1.op_class::SimdSha1Hash2                 0      0.00%     80.00% # Class of executed instruction
system.cpu1.op_class::SimdSha256Hash                0      0.00%     80.00% # Class of executed instruction
system.cpu1.op_class::SimdSha256Hash2               0      0.00%     80.00% # Class of executed instruction
system.cpu1.op_class::SimdShaSigma2                 0      0.00%     80.00% # Class of executed instruction
system.cpu1.op_class::SimdShaSigma3                 0      0.00%     80.00% # Class of executed instruction
system.cpu1.op_class::SimdPredAlu                   0      0.00%     80.00% # Class of executed instruction
system.cpu1.op_class::MemRead                       0      0.00%     80.00% # Class of executed instruction
system.cpu1.op_class::MemWrite                      1     20.00%    100.00% # Class of executed instruction
system.cpu1.op_class::FloatMemRead                  0      0.00%    100.00% # Class of executed instruction
system.cpu1.op_class::FloatMemWrite                 0      0.00%    100.00% # Class of executed instruction
system.cpu1.op_class::IprAccess                     0      0.00%    100.00% # Class of executed instruction
system.cpu1.op_class::InstPrefetch                  0      0.00%    100.00% # Class of executed instruction
system.cpu1.op_class::total                         5                       # Class of executed instruction
system.cpu1.toL2Bus.snoop_filter.hit_multi_requests           44                       # Number of requests hitting in the snoop filter with multiple (>1) holders of the requested data.
system.cpu1.toL2Bus.snoop_filter.hit_multi_snoops            0                       # Number of snoops hitting in the snoop filter with multiple (>1) holders of the requested data.
system.cpu1.toL2Bus.snoop_filter.hit_single_requests        56245                       # Number of requests hitting in the snoop filter with a single holder of the requested data.
system.cpu1.toL2Bus.snoop_filter.hit_single_snoops          502                       # Number of snoops hitting in the snoop filter with a single holder of the requested data.
system.cpu1.toL2Bus.snoop_filter.tot_requests       113287                       # Total number of requests made to the snoop filter.
system.cpu1.toL2Bus.snoop_filter.tot_snoops          502                       # Total number of snoops made to the snoop filter.
system.cpu1.toL3Bus.snoop_filter.hit_multi_requests            0                       # Number of requests hitting in the snoop filter with multiple (>1) holders of the requested data.
system.cpu1.toL3Bus.snoop_filter.hit_multi_snoops            0                       # Number of snoops hitting in the snoop filter with multiple (>1) holders of the requested data.
system.cpu1.toL3Bus.snoop_filter.hit_single_requests        25947                       # Number of requests hitting in the snoop filter with a single holder of the requested data.
system.cpu1.toL3Bus.snoop_filter.hit_single_snoops          243                       # Number of snoops hitting in the snoop filter with a single holder of the requested data.
system.cpu1.toL3Bus.snoop_filter.tot_requests        56309                       # Total number of requests made to the snoop filter.
system.cpu1.toL3Bus.snoop_filter.tot_snoops          243                       # Total number of snoops made to the snoop filter.
system.cpu1.workload.numSyscalls                16989                       # Number of system calls
system.membus.snoop_filter.hit_multi_requests            0                       # Number of requests hitting in the snoop filter with multiple (>1) holders of the requested data.
system.membus.snoop_filter.hit_multi_snoops            0                       # Number of snoops hitting in the snoop filter with multiple (>1) holders of the requested data.
system.membus.snoop_filter.hit_single_requests       177117                       # Number of requests hitting in the snoop filter with a single holder of the requested data.
system.membus.snoop_filter.hit_single_snoops            0                       # Number of snoops hitting in the snoop filter with a single holder of the requested data.
system.membus.snoop_filter.tot_requests        417260                       # Total number of requests made to the snoop filter.
system.membus.snoop_filter.tot_snoops               0                       # Total number of snoops made to the snoop filter.
system.switch_cpus0.Branches                   213474                       # Number of branches fetched
system.switch_cpus0.committedInsts             876128                       # Number of instructions committed
system.switch_cpus0.committedOps              1753972                       # Number of ops (including micro ops) committed
system.switch_cpus0.dtb.rdAccesses             235322                       # TLB accesses on read requests
system.switch_cpus0.dtb.rdMisses                 1371                       # TLB misses on read requests
system.switch_cpus0.dtb.wrAccesses              97091                       # TLB accesses on write requests
system.switch_cpus0.dtb.wrMisses                   18                       # TLB misses on write requests
system.switch_cpus0.idle_fraction            0.000000                       # Percentage of idle cycles
system.switch_cpus0.itb.rdAccesses                  0                       # TLB accesses on read requests
system.switch_cpus0.itb.rdMisses                    0                       # TLB misses on read requests
system.switch_cpus0.itb.wrAccesses            1128841                       # TLB accesses on write requests
system.switch_cpus0.itb.wrMisses                  342                       # TLB misses on write requests
system.switch_cpus0.not_idle_fraction        1.000000                       # Percentage of non-idle cycles
system.switch_cpus0.numCycles                 5844511                       # number of cpu cycles simulated
system.switch_cpus0.numWorkItemsCompleted            0                       # number of work items this cpu completed
system.switch_cpus0.numWorkItemsStarted             0                       # number of work items this cpu started
system.switch_cpus0.num_busy_cycles      5844510.486838                       # Number of busy cycles
system.switch_cpus0.num_cc_register_reads      1253354                       # number of times the CC registers were read
system.switch_cpus0.num_cc_register_writes       570607                       # number of times the CC registers were written
system.switch_cpus0.num_conditional_control_insts       144221                       # number of instructions that are conditional controls
system.switch_cpus0.num_fp_alu_accesses         30164                       # Number of float alu accesses
system.switch_cpus0.num_fp_insts                30164                       # number of float instructions
system.switch_cpus0.num_fp_register_reads        47425                       # number of times the floating registers were read
system.switch_cpus0.num_fp_register_writes        24356                       # number of times the floating registers were written
system.switch_cpus0.num_func_calls              44203                       # number of times a function call or return occured
system.switch_cpus0.num_idle_cycles          0.513162                       # Number of idle cycles
system.switch_cpus0.num_int_alu_accesses      1728849                       # Number of integer alu accesses
system.switch_cpus0.num_int_insts             1728849                       # number of integer instructions
system.switch_cpus0.num_int_register_reads      3395190                       # number of times the integer registers were read
system.switch_cpus0.num_int_register_writes      1415772                       # number of times the integer registers were written
system.switch_cpus0.num_load_insts             235099                       # Number of load instructions
system.switch_cpus0.num_mem_refs               332124                       # number of memory refs
system.switch_cpus0.num_store_insts             97025                       # Number of store instructions
system.switch_cpus0.num_vec_alu_accesses            0                       # Number of vector alu accesses
system.switch_cpus0.num_vec_insts                   0                       # number of vector instructions
system.switch_cpus0.num_vec_register_reads            0                       # number of times the vector registers were read
system.switch_cpus0.num_vec_register_writes            0                       # number of times the vector registers were written
system.switch_cpus0.op_class::No_OpClass         6406      0.37%      0.37% # Class of executed instruction
system.switch_cpus0.op_class::IntAlu          1392435     79.38%     79.75% # Class of executed instruction
system.switch_cpus0.op_class::IntMult              41      0.00%     79.75% # Class of executed instruction
system.switch_cpus0.op_class::IntDiv              155      0.01%     79.76% # Class of executed instruction
system.switch_cpus0.op_class::FloatAdd            152      0.01%     79.77% # Class of executed instruction
system.switch_cpus0.op_class::FloatCmp              0      0.00%     79.77% # Class of executed instruction
system.switch_cpus0.op_class::FloatCvt            144      0.01%     79.78% # Class of executed instruction
system.switch_cpus0.op_class::FloatMult             0      0.00%     79.78% # Class of executed instruction
system.switch_cpus0.op_class::FloatMultAcc            0      0.00%     79.78% # Class of executed instruction
system.switch_cpus0.op_class::FloatDiv              0      0.00%     79.78% # Class of executed instruction
system.switch_cpus0.op_class::FloatMisc             0      0.00%     79.78% # Class of executed instruction
system.switch_cpus0.op_class::FloatSqrt             0      0.00%     79.78% # Class of executed instruction
system.switch_cpus0.op_class::SimdAdd              68      0.00%     79.78% # Class of executed instruction
system.switch_cpus0.op_class::SimdAddAcc            0      0.00%     79.78% # Class of executed instruction
system.switch_cpus0.op_class::SimdAlu           13012      0.74%     80.52% # Class of executed instruction
system.switch_cpus0.op_class::SimdCmp               0      0.00%     80.52% # Class of executed instruction
system.switch_cpus0.op_class::SimdCvt            4612      0.26%     80.79% # Class of executed instruction
system.switch_cpus0.op_class::SimdMisc           4799      0.27%     81.06% # Class of executed instruction
system.switch_cpus0.op_class::SimdMult              0      0.00%     81.06% # Class of executed instruction
system.switch_cpus0.op_class::SimdMultAcc            0      0.00%     81.06% # Class of executed instruction
system.switch_cpus0.op_class::SimdShift            72      0.00%     81.06% # Class of executed instruction
system.switch_cpus0.op_class::SimdShiftAcc            0      0.00%     81.06% # Class of executed instruction
system.switch_cpus0.op_class::SimdDiv               0      0.00%     81.06% # Class of executed instruction
system.switch_cpus0.op_class::SimdSqrt              0      0.00%     81.06% # Class of executed instruction
system.switch_cpus0.op_class::SimdFloatAdd            0      0.00%     81.06% # Class of executed instruction
system.switch_cpus0.op_class::SimdFloatAlu            0      0.00%     81.06% # Class of executed instruction
system.switch_cpus0.op_class::SimdFloatCmp            0      0.00%     81.06% # Class of executed instruction
system.switch_cpus0.op_class::SimdFloatCvt           12      0.00%     81.07% # Class of executed instruction
system.switch_cpus0.op_class::SimdFloatDiv            0      0.00%     81.07% # Class of executed instruction
system.switch_cpus0.op_class::SimdFloatMisc            0      0.00%     81.07% # Class of executed instruction
system.switch_cpus0.op_class::SimdFloatMult            0      0.00%     81.07% # Class of executed instruction
system.switch_cpus0.op_class::SimdFloatMultAcc            0      0.00%     81.07% # Class of executed instruction
system.switch_cpus0.op_class::SimdFloatSqrt            0      0.00%     81.07% # Class of executed instruction
system.switch_cpus0.op_class::SimdReduceAdd            0      0.00%     81.07% # Class of executed instruction
system.switch_cpus0.op_class::SimdReduceAlu            0      0.00%     81.07% # Class of executed instruction
system.switch_cpus0.op_class::SimdReduceCmp            0      0.00%     81.07% # Class of executed instruction
system.switch_cpus0.op_class::SimdFloatReduceAdd            0      0.00%     81.07% # Class of executed instruction
system.switch_cpus0.op_class::SimdFloatReduceCmp            0      0.00%     81.07% # Class of executed instruction
system.switch_cpus0.op_class::SimdAes               0      0.00%     81.07% # Class of executed instruction
system.switch_cpus0.op_class::SimdAesMix            0      0.00%     81.07% # Class of executed instruction
system.switch_cpus0.op_class::SimdSha1Hash            0      0.00%     81.07% # Class of executed instruction
system.switch_cpus0.op_class::SimdSha1Hash2            0      0.00%     81.07% # Class of executed instruction
system.switch_cpus0.op_class::SimdSha256Hash            0      0.00%     81.07% # Class of executed instruction
system.switch_cpus0.op_class::SimdSha256Hash2            0      0.00%     81.07% # Class of executed instruction
system.switch_cpus0.op_class::SimdShaSigma2            0      0.00%     81.07% # Class of executed instruction
system.switch_cpus0.op_class::SimdShaSigma3            0      0.00%     81.07% # Class of executed instruction
system.switch_cpus0.op_class::SimdPredAlu            0      0.00%     81.07% # Class of executed instruction
system.switch_cpus0.op_class::MemRead          229397     13.08%     94.14% # Class of executed instruction
system.switch_cpus0.op_class::MemWrite          95691      5.46%     99.60% # Class of executed instruction
system.switch_cpus0.op_class::FloatMemRead         5702      0.33%     99.92% # Class of executed instruction
system.switch_cpus0.op_class::FloatMemWrite         1334      0.08%    100.00% # Class of executed instruction
system.switch_cpus0.op_class::IprAccess             0      0.00%    100.00% # Class of executed instruction
system.switch_cpus0.op_class::InstPrefetch            0      0.00%    100.00% # Class of executed instruction
system.switch_cpus0.op_class::total           1754032                       # Class of executed instruction
system.switch_cpus1.Branches                   224834                       # Number of branches fetched
system.switch_cpus1.committedInsts            1000001                       # Number of instructions committed
system.switch_cpus1.committedOps              2024684                       # Number of ops (including micro ops) committed
system.switch_cpus1.dtb.rdAccesses             291888                       # TLB accesses on read requests
system.switch_cpus1.dtb.rdMisses                   40                       # TLB misses on read requests
system.switch_cpus1.dtb.wrAccesses             213202                       # TLB accesses on write requests
system.switch_cpus1.dtb.wrMisses                    3                       # TLB misses on write requests
system.switch_cpus1.idle_fraction            0.000000                       # Percentage of idle cycles
system.switch_cpus1.itb.rdAccesses                  0                       # TLB accesses on read requests
system.switch_cpus1.itb.rdMisses                    0                       # TLB misses on read requests
system.switch_cpus1.itb.wrAccesses            1267697                       # TLB accesses on write requests
system.switch_cpus1.itb.wrMisses                   27                       # TLB misses on write requests
system.switch_cpus1.not_idle_fraction        1.000000                       # Percentage of non-idle cycles
system.switch_cpus1.numCycles                 5844511                       # number of cpu cycles simulated
system.switch_cpus1.numWorkItemsCompleted            0                       # number of work items this cpu completed
system.switch_cpus1.numWorkItemsStarted             0                       # number of work items this cpu started
system.switch_cpus1.num_busy_cycles      5844510.486838                       # Number of busy cycles
system.switch_cpus1.num_cc_register_reads       839766                       # number of times the CC registers were read
system.switch_cpus1.num_cc_register_writes       449805                       # number of times the CC registers were written
system.switch_cpus1.num_conditional_control_insts       102459                       # number of instructions that are conditional controls
system.switch_cpus1.num_fp_alu_accesses         16406                       # Number of float alu accesses
system.switch_cpus1.num_fp_insts                16406                       # number of float instructions
system.switch_cpus1.num_fp_register_reads        27540                       # number of times the floating registers were read
system.switch_cpus1.num_fp_register_writes        14430                       # number of times the floating registers were written
system.switch_cpus1.num_func_calls             106054                       # number of times a function call or return occured
system.switch_cpus1.num_idle_cycles          0.513162                       # Number of idle cycles
system.switch_cpus1.num_int_alu_accesses      2003876                       # Number of integer alu accesses
system.switch_cpus1.num_int_insts             2003876                       # number of integer instructions
system.switch_cpus1.num_int_register_reads      4247890                       # number of times the integer registers were read
system.switch_cpus1.num_int_register_writes      1572123                       # number of times the integer registers were written
system.switch_cpus1.num_load_insts             291886                       # Number of load instructions
system.switch_cpus1.num_mem_refs               505086                       # number of memory refs
system.switch_cpus1.num_store_insts            213200                       # Number of store instructions
system.switch_cpus1.num_vec_alu_accesses            0                       # Number of vector alu accesses
system.switch_cpus1.num_vec_insts                   0                       # number of vector instructions
system.switch_cpus1.num_vec_register_reads            0                       # number of times the vector registers were read
system.switch_cpus1.num_vec_register_writes            0                       # number of times the vector registers were written
system.switch_cpus1.op_class::No_OpClass         6797      0.34%      0.34% # Class of executed instruction
system.switch_cpus1.op_class::IntAlu          1497763     73.98%     74.31% # Class of executed instruction
system.switch_cpus1.op_class::IntMult             941      0.05%     74.36% # Class of executed instruction
system.switch_cpus1.op_class::IntDiv             2289      0.11%     74.47% # Class of executed instruction
system.switch_cpus1.op_class::FloatAdd            654      0.03%     74.50% # Class of executed instruction
system.switch_cpus1.op_class::FloatCmp              0      0.00%     74.50% # Class of executed instruction
system.switch_cpus1.op_class::FloatCvt              0      0.00%     74.50% # Class of executed instruction
system.switch_cpus1.op_class::FloatMult             0      0.00%     74.50% # Class of executed instruction
system.switch_cpus1.op_class::FloatMultAcc            0      0.00%     74.50% # Class of executed instruction
system.switch_cpus1.op_class::FloatDiv              0      0.00%     74.50% # Class of executed instruction
system.switch_cpus1.op_class::FloatMisc             0      0.00%     74.50% # Class of executed instruction
system.switch_cpus1.op_class::FloatSqrt             0      0.00%     74.50% # Class of executed instruction
system.switch_cpus1.op_class::SimdAdd               0      0.00%     74.50% # Class of executed instruction
system.switch_cpus1.op_class::SimdAddAcc            0      0.00%     74.50% # Class of executed instruction
system.switch_cpus1.op_class::SimdAlu            2624      0.13%     74.63% # Class of executed instruction
system.switch_cpus1.op_class::SimdCmp               0      0.00%     74.63% # Class of executed instruction
system.switch_cpus1.op_class::SimdCvt            2630      0.13%     74.76% # Class of executed instruction
system.switch_cpus1.op_class::SimdMisc           5900      0.29%     75.05% # Class of executed instruction
system.switch_cpus1.op_class::SimdMult              0      0.00%     75.05% # Class of executed instruction
system.switch_cpus1.op_class::SimdMultAcc            0      0.00%     75.05% # Class of executed instruction
system.switch_cpus1.op_class::SimdShift             0      0.00%     75.05% # Class of executed instruction
system.switch_cpus1.op_class::SimdShiftAcc            0      0.00%     75.05% # Class of executed instruction
system.switch_cpus1.op_class::SimdDiv               0      0.00%     75.05% # Class of executed instruction
system.switch_cpus1.op_class::SimdSqrt              0      0.00%     75.05% # Class of executed instruction
system.switch_cpus1.op_class::SimdFloatAdd            0      0.00%     75.05% # Class of executed instruction
system.switch_cpus1.op_class::SimdFloatAlu            0      0.00%     75.05% # Class of executed instruction
system.switch_cpus1.op_class::SimdFloatCmp            0      0.00%     75.05% # Class of executed instruction
system.switch_cpus1.op_class::SimdFloatCvt            0      0.00%     75.05% # Class of executed instruction
system.switch_cpus1.op_class::SimdFloatDiv            0      0.00%     75.05% # Class of executed instruction
system.switch_cpus1.op_class::SimdFloatMisc            0      0.00%     75.05% # Class of executed instruction
system.switch_cpus1.op_class::SimdFloatMult            0      0.00%     75.05% # Class of executed instruction
system.switch_cpus1.op_class::SimdFloatMultAcc            0      0.00%     75.05% # Class of executed instruction
system.switch_cpus1.op_class::SimdFloatSqrt            0      0.00%     75.05% # Class of executed instruction
system.switch_cpus1.op_class::SimdReduceAdd            0      0.00%     75.05% # Class of executed instruction
system.switch_cpus1.op_class::SimdReduceAlu            0      0.00%     75.05% # Class of executed instruction
system.switch_cpus1.op_class::SimdReduceCmp            0      0.00%     75.05% # Class of executed instruction
system.switch_cpus1.op_class::SimdFloatReduceAdd            0      0.00%     75.05% # Class of executed instruction
system.switch_cpus1.op_class::SimdFloatReduceCmp            0      0.00%     75.05% # Class of executed instruction
system.switch_cpus1.op_class::SimdAes               0      0.00%     75.05% # Class of executed instruction
system.switch_cpus1.op_class::SimdAesMix            0      0.00%     75.05% # Class of executed instruction
system.switch_cpus1.op_class::SimdSha1Hash            0      0.00%     75.05% # Class of executed instruction
system.switch_cpus1.op_class::SimdSha1Hash2            0      0.00%     75.05% # Class of executed instruction
system.switch_cpus1.op_class::SimdSha256Hash            0      0.00%     75.05% # Class of executed instruction
system.switch_cpus1.op_class::SimdSha256Hash2            0      0.00%     75.05% # Class of executed instruction
system.switch_cpus1.op_class::SimdShaSigma2            0      0.00%     75.05% # Class of executed instruction
system.switch_cpus1.op_class::SimdShaSigma3            0      0.00%     75.05% # Class of executed instruction
system.switch_cpus1.op_class::SimdPredAlu            0      0.00%     75.05% # Class of executed instruction
system.switch_cpus1.op_class::MemRead          289904     14.32%     89.37% # Class of executed instruction
system.switch_cpus1.op_class::MemWrite         212546     10.50%     99.87% # Class of executed instruction
system.switch_cpus1.op_class::FloatMemRead         1982      0.10%     99.97% # Class of executed instruction
system.switch_cpus1.op_class::FloatMemWrite          654      0.03%    100.00% # Class of executed instruction
system.switch_cpus1.op_class::IprAccess             0      0.00%    100.00% # Class of executed instruction
system.switch_cpus1.op_class::InstPrefetch            0      0.00%    100.00% # Class of executed instruction
system.switch_cpus1.op_class::total           2024684                       # Class of executed instruction
system.switch_cpus_10.branchPred.BTBCorrect            0                       # Number of correct BTB predictions (this stat may not work properly.
system.switch_cpus_10.branchPred.BTBHitPct     0.000000                       # BTB Hit Percentage
system.switch_cpus_10.branchPred.BTBHits            0                       # Number of BTB hits
system.switch_cpus_10.branchPred.BTBLookups      4355767                       # Number of BTB lookups
system.switch_cpus_10.branchPred.RASInCorrect          238                       # Number of incorrect RAS predictions.
system.switch_cpus_10.branchPred.condIncorrect       318561                       # Number of conditional branches incorrect
system.switch_cpus_10.branchPred.condPredicted      4198518                       # Number of conditional branches predicted
system.switch_cpus_10.branchPred.indirectHits      1758870                       # Number of indirect target hits.
system.switch_cpus_10.branchPred.indirectLookups      4355767                       # Number of indirect predictor lookups.
system.switch_cpus_10.branchPred.indirectMisses      2596897                       # Number of indirect misses.
system.switch_cpus_10.branchPred.lookups      4999456                       # Number of BP lookups
system.switch_cpus_10.branchPred.usedRAS       344929                       # Number of times the RAS was used to get a target.
system.switch_cpus_10.branchPredindirectMispredicted       248127                       # Number of mispredicted indirect branches.
system.switch_cpus_10.cc_regfile_reads       22868301                       # number of cc regfile reads
system.switch_cpus_10.cc_regfile_writes      18307358                       # number of cc regfile writes
system.switch_cpus_10.commit.amos                   0                       # Number of atomic instructions committed
system.switch_cpus_10.commit.branchMispredicts       318562                       # The number of times a branch was mispredicted
system.switch_cpus_10.commit.branches         3276226                       # Number of branches committed
system.switch_cpus_10.commit.bw_lim_events      3515816                       # number cycles where commit BW limit reached
system.switch_cpus_10.commit.commitNonSpecStalls         3832                       # The number of times commit has been forced to stall to communicate backwards
system.switch_cpus_10.commit.commitSquashedInsts      9050232                       # The number of squashed insts skipped by commit
system.switch_cpus_10.commit.committedInsts     39723709                       # Number of instructions committed
system.switch_cpus_10.commit.committedOps     60004636                       # Number of ops (including micro ops) committed
system.switch_cpus_10.commit.committed_per_cycle::samples     60586828                       # Number of insts commited each cycle
system.switch_cpus_10.commit.committed_per_cycle::mean     0.990391                       # Number of insts commited each cycle
system.switch_cpus_10.commit.committed_per_cycle::stdev     2.135262                       # Number of insts commited each cycle
system.switch_cpus_10.commit.committed_per_cycle::underflows            0      0.00%      0.00% # Number of insts commited each cycle
system.switch_cpus_10.commit.committed_per_cycle::0     43707198     72.14%     72.14% # Number of insts commited each cycle
system.switch_cpus_10.commit.committed_per_cycle::1      5769990      9.52%     81.66% # Number of insts commited each cycle
system.switch_cpus_10.commit.committed_per_cycle::2      2422142      4.00%     85.66% # Number of insts commited each cycle
system.switch_cpus_10.commit.committed_per_cycle::3      2142897      3.54%     89.20% # Number of insts commited each cycle
system.switch_cpus_10.commit.committed_per_cycle::4      1356773      2.24%     91.44% # Number of insts commited each cycle
system.switch_cpus_10.commit.committed_per_cycle::5      1059425      1.75%     93.19% # Number of insts commited each cycle
system.switch_cpus_10.commit.committed_per_cycle::6       177183      0.29%     93.48% # Number of insts commited each cycle
system.switch_cpus_10.commit.committed_per_cycle::7       435404      0.72%     94.20% # Number of insts commited each cycle
system.switch_cpus_10.commit.committed_per_cycle::8      3515816      5.80%    100.00% # Number of insts commited each cycle
system.switch_cpus_10.commit.committed_per_cycle::overflows            0      0.00%    100.00% # Number of insts commited each cycle
system.switch_cpus_10.commit.committed_per_cycle::min_value            0                       # Number of insts commited each cycle
system.switch_cpus_10.commit.committed_per_cycle::max_value            8                       # Number of insts commited each cycle
system.switch_cpus_10.commit.committed_per_cycle::total     60586828                       # Number of insts commited each cycle
system.switch_cpus_10.commit.fp_insts        24507636                       # Number of committed floating point instructions.
system.switch_cpus_10.commit.function_calls       235666                       # Number of function calls committed.
system.switch_cpus_10.commit.int_insts       44903824                       # Number of committed integer instructions.
system.switch_cpus_10.commit.loads           13943769                       # Number of loads committed
system.switch_cpus_10.commit.membars             2184                       # Number of memory barriers committed
system.switch_cpus_10.commit.op_class_0::No_OpClass       112630      0.19%      0.19% # Class of committed instruction
system.switch_cpus_10.commit.op_class_0::IntAlu     26688455     44.48%     44.67% # Class of committed instruction
system.switch_cpus_10.commit.op_class_0::IntMult       774532      1.29%     45.96% # Class of committed instruction
system.switch_cpus_10.commit.op_class_0::IntDiv         9587      0.02%     45.97% # Class of committed instruction
system.switch_cpus_10.commit.op_class_0::FloatAdd         5554      0.01%     45.98% # Class of committed instruction
system.switch_cpus_10.commit.op_class_0::FloatCmp            0      0.00%     45.98% # Class of committed instruction
system.switch_cpus_10.commit.op_class_0::FloatCvt          112      0.00%     45.98% # Class of committed instruction
system.switch_cpus_10.commit.op_class_0::FloatMult            0      0.00%     45.98% # Class of committed instruction
system.switch_cpus_10.commit.op_class_0::FloatMultAcc            0      0.00%     45.98% # Class of committed instruction
system.switch_cpus_10.commit.op_class_0::FloatDiv            0      0.00%     45.98% # Class of committed instruction
system.switch_cpus_10.commit.op_class_0::FloatMisc            0      0.00%     45.98% # Class of committed instruction
system.switch_cpus_10.commit.op_class_0::FloatSqrt            0      0.00%     45.98% # Class of committed instruction
system.switch_cpus_10.commit.op_class_0::SimdAdd        17302      0.03%     46.01% # Class of committed instruction
system.switch_cpus_10.commit.op_class_0::SimdAddAcc            0      0.00%     46.01% # Class of committed instruction
system.switch_cpus_10.commit.op_class_0::SimdAlu       179756      0.30%     46.31% # Class of committed instruction
system.switch_cpus_10.commit.op_class_0::SimdCmp          404      0.00%     46.31% # Class of committed instruction
system.switch_cpus_10.commit.op_class_0::SimdCvt       116246      0.19%     46.50% # Class of committed instruction
system.switch_cpus_10.commit.op_class_0::SimdMisc      1275403      2.13%     48.63% # Class of committed instruction
system.switch_cpus_10.commit.op_class_0::SimdMult            0      0.00%     48.63% # Class of committed instruction
system.switch_cpus_10.commit.op_class_0::SimdMultAcc            0      0.00%     48.63% # Class of committed instruction
system.switch_cpus_10.commit.op_class_0::SimdShift         3410      0.01%     48.64% # Class of committed instruction
system.switch_cpus_10.commit.op_class_0::SimdShiftAcc            0      0.00%     48.64% # Class of committed instruction
system.switch_cpus_10.commit.op_class_0::SimdDiv            0      0.00%     48.64% # Class of committed instruction
system.switch_cpus_10.commit.op_class_0::SimdSqrt            0      0.00%     48.64% # Class of committed instruction
system.switch_cpus_10.commit.op_class_0::SimdFloatAdd      3078253      5.13%     53.77% # Class of committed instruction
system.switch_cpus_10.commit.op_class_0::SimdFloatAlu            0      0.00%     53.77% # Class of committed instruction
system.switch_cpus_10.commit.op_class_0::SimdFloatCmp            0      0.00%     53.77% # Class of committed instruction
system.switch_cpus_10.commit.op_class_0::SimdFloatCvt      5002560      8.34%     62.10% # Class of committed instruction
system.switch_cpus_10.commit.op_class_0::SimdFloatDiv      2308488      3.85%     65.95% # Class of committed instruction
system.switch_cpus_10.commit.op_class_0::SimdFloatMisc            0      0.00%     65.95% # Class of committed instruction
system.switch_cpus_10.commit.op_class_0::SimdFloatMult      3462762      5.77%     71.72% # Class of committed instruction
system.switch_cpus_10.commit.op_class_0::SimdFloatMultAcc            0      0.00%     71.72% # Class of committed instruction
system.switch_cpus_10.commit.op_class_0::SimdFloatSqrt       384748      0.64%     72.36% # Class of committed instruction
system.switch_cpus_10.commit.op_class_0::SimdReduceAdd            0      0.00%     72.36% # Class of committed instruction
system.switch_cpus_10.commit.op_class_0::SimdReduceAlu            0      0.00%     72.36% # Class of committed instruction
system.switch_cpus_10.commit.op_class_0::SimdReduceCmp            0      0.00%     72.36% # Class of committed instruction
system.switch_cpus_10.commit.op_class_0::SimdFloatReduceAdd            0      0.00%     72.36% # Class of committed instruction
system.switch_cpus_10.commit.op_class_0::SimdFloatReduceCmp            0      0.00%     72.36% # Class of committed instruction
system.switch_cpus_10.commit.op_class_0::SimdAes            0      0.00%     72.36% # Class of committed instruction
system.switch_cpus_10.commit.op_class_0::SimdAesMix            0      0.00%     72.36% # Class of committed instruction
system.switch_cpus_10.commit.op_class_0::SimdSha1Hash            0      0.00%     72.36% # Class of committed instruction
system.switch_cpus_10.commit.op_class_0::SimdSha1Hash2            0      0.00%     72.36% # Class of committed instruction
system.switch_cpus_10.commit.op_class_0::SimdSha256Hash            0      0.00%     72.36% # Class of committed instruction
system.switch_cpus_10.commit.op_class_0::SimdSha256Hash2            0      0.00%     72.36% # Class of committed instruction
system.switch_cpus_10.commit.op_class_0::SimdShaSigma2            0      0.00%     72.36% # Class of committed instruction
system.switch_cpus_10.commit.op_class_0::SimdShaSigma3            0      0.00%     72.36% # Class of committed instruction
system.switch_cpus_10.commit.op_class_0::SimdPredAlu            0      0.00%     72.36% # Class of committed instruction
system.switch_cpus_10.commit.op_class_0::MemRead      7258666     12.10%     84.46% # Class of committed instruction
system.switch_cpus_10.commit.op_class_0::MemWrite      1051026      1.75%     86.21% # Class of committed instruction
system.switch_cpus_10.commit.op_class_0::FloatMemRead      6685103     11.14%     97.35% # Class of committed instruction
system.switch_cpus_10.commit.op_class_0::FloatMemWrite      1589639      2.65%    100.00% # Class of committed instruction
system.switch_cpus_10.commit.op_class_0::IprAccess            0      0.00%    100.00% # Class of committed instruction
system.switch_cpus_10.commit.op_class_0::InstPrefetch            0      0.00%    100.00% # Class of committed instruction
system.switch_cpus_10.commit.op_class_0::total     60004636                       # Class of committed instruction
system.switch_cpus_10.commit.refs            16584434                       # Number of memory references committed
system.switch_cpus_10.commit.swp_count              0                       # Number of s/w prefetches committed
system.switch_cpus_10.commit.vec_insts              0                       # Number of committed Vector instructions.
system.switch_cpus_10.committedInsts         39723709                       # Number of Instructions Simulated
system.switch_cpus_10.committedOps           60004636                       # Number of Ops (including micro ops) Simulated
system.switch_cpus_10.cpi                    1.573134                       # CPI: Cycles Per Instruction
system.switch_cpus_10.cpi_total              1.573134                       # CPI: Total CPI of All Threads
system.switch_cpus_10.decode.BlockedCycles     41851568                       # Number of cycles decode is blocked
system.switch_cpus_10.decode.DecodedInsts     72752597                       # Number of instructions handled by decode
system.switch_cpus_10.decode.IdleCycles       8994845                       # Number of cycles decode is idle
system.switch_cpus_10.decode.RunCycles        9834739                       # Number of cycles decode is running
system.switch_cpus_10.decode.SquashCycles       329591                       # Number of cycles decode is squashing
system.switch_cpus_10.decode.UnblockCycles       960351                       # Number of cycles decode is unblocking
system.switch_cpus_10.dtb.rdAccesses         14824163                       # TLB accesses on read requests
system.switch_cpus_10.dtb.rdMisses               8531                       # TLB misses on read requests
system.switch_cpus_10.dtb.wrAccesses          3180913                       # TLB accesses on write requests
system.switch_cpus_10.dtb.wrMisses               4343                       # TLB misses on write requests
system.switch_cpus_10.fetch.Branches          4999456                       # Number of branches that fetch encountered
system.switch_cpus_10.fetch.CacheLines        4668651                       # Number of cache lines fetched
system.switch_cpus_10.fetch.Cycles           51518480                       # Number of cycles fetch has run and was not squashing or blocked
system.switch_cpus_10.fetch.IcacheSquashes       134970                       # Number of outstanding Icache misses that were squashed
system.switch_cpus_10.fetch.IcacheWaitRetryStallCycles         1002                       # Number of stall cycles due to full MSHR
system.switch_cpus_10.fetch.Insts            46982689                       # Number of instructions fetch has processed
system.switch_cpus_10.fetch.MiscStallCycles          468                       # Number of cycles fetch has spent waiting on interrupts, or bad addresses, or out of MSHRs
system.switch_cpus_10.fetch.PendingTrapStallCycles            9                       # Number of stall cycles due to pending traps
system.switch_cpus_10.fetch.SquashCycles       659182                       # Number of cycles fetch has spent squashing
system.switch_cpus_10.fetch.branchRate       0.080003                       # Number of branch fetches per cycle
system.switch_cpus_10.fetch.icacheStallCycles     10121550                       # Number of cycles fetch is stalled on an Icache miss
system.switch_cpus_10.fetch.predictedBranches      2103799                       # Number of branches that fetch has predicted taken
system.switch_cpus_10.fetch.rate             0.751835                       # Number of inst fetches per cycle
system.switch_cpus_10.fetch.rateDist::samples     61971100                       # Number of instructions fetched each cycle (Total)
system.switch_cpus_10.fetch.rateDist::mean     1.205095                       # Number of instructions fetched each cycle (Total)
system.switch_cpus_10.fetch.rateDist::stdev     2.693776                       # Number of instructions fetched each cycle (Total)
system.switch_cpus_10.fetch.rateDist::underflows            0      0.00%      0.00% # Number of instructions fetched each cycle (Total)
system.switch_cpus_10.fetch.rateDist::0      50203627     81.01%     81.01% # Number of instructions fetched each cycle (Total)
system.switch_cpus_10.fetch.rateDist::1        384280      0.62%     81.63% # Number of instructions fetched each cycle (Total)
system.switch_cpus_10.fetch.rateDist::2        785521      1.27%     82.90% # Number of instructions fetched each cycle (Total)
system.switch_cpus_10.fetch.rateDist::3       1466341      2.37%     85.27% # Number of instructions fetched each cycle (Total)
system.switch_cpus_10.fetch.rateDist::4        517972      0.84%     86.10% # Number of instructions fetched each cycle (Total)
system.switch_cpus_10.fetch.rateDist::5        396403      0.64%     86.74% # Number of instructions fetched each cycle (Total)
system.switch_cpus_10.fetch.rateDist::6        411583      0.66%     87.40% # Number of instructions fetched each cycle (Total)
system.switch_cpus_10.fetch.rateDist::7        639679      1.03%     88.44% # Number of instructions fetched each cycle (Total)
system.switch_cpus_10.fetch.rateDist::8       7165694     11.56%    100.00% # Number of instructions fetched each cycle (Total)
system.switch_cpus_10.fetch.rateDist::overflows            0      0.00%    100.00% # Number of instructions fetched each cycle (Total)
system.switch_cpus_10.fetch.rateDist::min_value            0                       # Number of instructions fetched each cycle (Total)
system.switch_cpus_10.fetch.rateDist::max_value            8                       # Number of instructions fetched each cycle (Total)
system.switch_cpus_10.fetch.rateDist::total     61971100                       # Number of instructions fetched each cycle (Total)
system.switch_cpus_10.fp_regfile_reads       42117465                       # number of floating regfile reads
system.switch_cpus_10.fp_regfile_writes      22695639                       # number of floating regfile writes
system.switch_cpus_10.idleCycles               519626                       # Total number of cycles that the CPU has spent unscheduled due to idling
system.switch_cpus_10.iew.branchMispredicts       418358                       # Number of branch mispredicts detected at execute
system.switch_cpus_10.iew.exec_branches       3719905                       # Number of branches executed
system.switch_cpus_10.iew.exec_nop                  0                       # number of nop insts executed
system.switch_cpus_10.iew.exec_rate          1.052645                       # Inst execution rate
system.switch_cpus_10.iew.exec_refs          17999673                       # number of memory reference insts executed
system.switch_cpus_10.iew.exec_stores         3180067                       # Number of stores executed
system.switch_cpus_10.iew.exec_swp                  0                       # number of swp insts executed
system.switch_cpus_10.iew.iewBlockCycles      1321116                       # Number of cycles IEW is blocking
system.switch_cpus_10.iew.iewDispLoadInsts     15363897                       # Number of dispatched load instructions
system.switch_cpus_10.iew.iewDispNonSpecInsts         3621                       # Number of dispatched non-speculative instructions
system.switch_cpus_10.iew.iewDispSquashedInsts       154350                       # Number of squashed instructions skipped by dispatch
system.switch_cpus_10.iew.iewDispStoreInsts      3520682                       # Number of dispatched store instructions
system.switch_cpus_10.iew.iewDispatchedInsts     69335560                       # Number of instructions dispatched to IQ
system.switch_cpus_10.iew.iewExecLoadInsts     14819606                       # Number of load instructions executed
system.switch_cpus_10.iew.iewExecSquashedInsts       657261                       # Number of squashed instructions skipped in execute
system.switch_cpus_10.iew.iewExecutedInsts     65780572                       # Number of executed instructions
system.switch_cpus_10.iew.iewIQFullEvents         5663                       # Number of times the IQ has become full, causing a stall
system.switch_cpus_10.iew.iewIdleCycles             0                       # Number of cycles IEW is idle
system.switch_cpus_10.iew.iewLSQFullEvents     10174036                       # Number of times the LSQ has become full, causing a stall
system.switch_cpus_10.iew.iewSquashCycles       329591                       # Number of cycles IEW is squashing
system.switch_cpus_10.iew.iewUnblockCycles     10181420                       # Number of cycles IEW is unblocking
system.switch_cpus_10.iew.lsq.thread0.blockedLoads            0                       # Number of blocked loads due to partial load-store forwarding
system.switch_cpus_10.iew.lsq.thread0.cacheBlocked          336                       # Number of times an access to memory failed due to the cache being blocked
system.switch_cpus_10.iew.lsq.thread0.forwLoads       970317                       # Number of loads that had data forwarded from stores
system.switch_cpus_10.iew.lsq.thread0.ignoredResponses         3113                       # Number of memory responses ignored because the instruction is squashed
system.switch_cpus_10.iew.lsq.thread0.invAddrLoads            0                       # Number of loads ignored due to an invalid address
system.switch_cpus_10.iew.lsq.thread0.invAddrSwpfs            0                       # Number of software prefetches ignored due to an invalid address
system.switch_cpus_10.iew.lsq.thread0.memOrderViolation         1520                       # Number of memory ordering violations
system.switch_cpus_10.iew.lsq.thread0.rescheduledLoads          771                       # Number of loads that were rescheduled
system.switch_cpus_10.iew.lsq.thread0.squashedLoads      1420117                       # Number of loads squashed
system.switch_cpus_10.iew.lsq.thread0.squashedStores       880016                       # Number of stores squashed
system.switch_cpus_10.iew.memOrderViolationEvents         1520                       # Number of memory order violations
system.switch_cpus_10.iew.predictedNotTakenIncorrect       363993                       # Number of branches that were predicted not taken incorrectly
system.switch_cpus_10.iew.predictedTakenIncorrect        54365                       # Number of branches that were predicted taken incorrectly
system.switch_cpus_10.iew.wb_consumers       92337572                       # num instructions consuming a value
system.switch_cpus_10.iew.wb_count           65348345                       # cumulative count of insts written-back
system.switch_cpus_10.iew.wb_fanout          0.585229                       # average fanout of values written-back
system.switch_cpus_10.iew.wb_producers       54038603                       # num instructions producing a value
system.switch_cpus_10.iew.wb_rate            1.045729                       # insts written-back per cycle
system.switch_cpus_10.iew.wb_sent            65507638                       # cumulative count of insts sent to commit
system.switch_cpus_10.int_regfile_reads      82168885                       # number of integer regfile reads
system.switch_cpus_10.int_regfile_writes     36084893                       # number of integer regfile writes
system.switch_cpus_10.ipc                    0.635674                       # IPC: Instructions Per Cycle
system.switch_cpus_10.ipc_total              0.635674                       # IPC: Total IPC of All Threads
system.switch_cpus_10.iq.FU_type_0::No_OpClass       298177      0.45%      0.45% # Type of FU issued
system.switch_cpus_10.iq.FU_type_0::IntAlu     31246606     47.03%     47.48% # Type of FU issued
system.switch_cpus_10.iq.FU_type_0::IntMult       779906      1.17%     48.65% # Type of FU issued
system.switch_cpus_10.iq.FU_type_0::IntDiv        10045      0.02%     48.67% # Type of FU issued
system.switch_cpus_10.iq.FU_type_0::FloatAdd         8963      0.01%     48.68% # Type of FU issued
system.switch_cpus_10.iq.FU_type_0::FloatCmp            0      0.00%     48.68% # Type of FU issued
system.switch_cpus_10.iq.FU_type_0::FloatCvt          328      0.00%     48.68% # Type of FU issued
system.switch_cpus_10.iq.FU_type_0::FloatMult            0      0.00%     48.68% # Type of FU issued
system.switch_cpus_10.iq.FU_type_0::FloatMultAcc            0      0.00%     48.68% # Type of FU issued
system.switch_cpus_10.iq.FU_type_0::FloatDiv            0      0.00%     48.68% # Type of FU issued
system.switch_cpus_10.iq.FU_type_0::FloatMisc            0      0.00%     48.68% # Type of FU issued
system.switch_cpus_10.iq.FU_type_0::FloatSqrt            0      0.00%     48.68% # Type of FU issued
system.switch_cpus_10.iq.FU_type_0::SimdAdd        18991      0.03%     48.71% # Type of FU issued
system.switch_cpus_10.iq.FU_type_0::SimdAddAcc            0      0.00%     48.71% # Type of FU issued
system.switch_cpus_10.iq.FU_type_0::SimdAlu       187698      0.28%     48.99% # Type of FU issued
system.switch_cpus_10.iq.FU_type_0::SimdCmp          617      0.00%     49.00% # Type of FU issued
system.switch_cpus_10.iq.FU_type_0::SimdCvt       121791      0.18%     49.18% # Type of FU issued
system.switch_cpus_10.iq.FU_type_0::SimdMisc      1282579      1.93%     51.11% # Type of FU issued
system.switch_cpus_10.iq.FU_type_0::SimdMult            0      0.00%     51.11% # Type of FU issued
system.switch_cpus_10.iq.FU_type_0::SimdMultAcc            0      0.00%     51.11% # Type of FU issued
system.switch_cpus_10.iq.FU_type_0::SimdShift         5617      0.01%     51.12% # Type of FU issued
system.switch_cpus_10.iq.FU_type_0::SimdShiftAcc            0      0.00%     51.12% # Type of FU issued
system.switch_cpus_10.iq.FU_type_0::SimdDiv            0      0.00%     51.12% # Type of FU issued
system.switch_cpus_10.iq.FU_type_0::SimdSqrt            0      0.00%     51.12% # Type of FU issued
system.switch_cpus_10.iq.FU_type_0::SimdFloatAdd      3080613      4.64%     55.75% # Type of FU issued
system.switch_cpus_10.iq.FU_type_0::SimdFloatAlu            0      0.00%     55.75% # Type of FU issued
system.switch_cpus_10.iq.FU_type_0::SimdFloatCmp            0      0.00%     55.75% # Type of FU issued
system.switch_cpus_10.iq.FU_type_0::SimdFloatCvt      5025733      7.56%     63.32% # Type of FU issued
system.switch_cpus_10.iq.FU_type_0::SimdFloatDiv      2317756      3.49%     66.81% # Type of FU issued
system.switch_cpus_10.iq.FU_type_0::SimdFloatMisc            0      0.00%     66.81% # Type of FU issued
system.switch_cpus_10.iq.FU_type_0::SimdFloatMult      3467417      5.22%     72.03% # Type of FU issued
system.switch_cpus_10.iq.FU_type_0::SimdFloatMultAcc            0      0.00%     72.03% # Type of FU issued
system.switch_cpus_10.iq.FU_type_0::SimdFloatSqrt       384748      0.58%     72.61% # Type of FU issued
system.switch_cpus_10.iq.FU_type_0::SimdReduceAdd            0      0.00%     72.61% # Type of FU issued
system.switch_cpus_10.iq.FU_type_0::SimdReduceAlu            0      0.00%     72.61% # Type of FU issued
system.switch_cpus_10.iq.FU_type_0::SimdReduceCmp            0      0.00%     72.61% # Type of FU issued
system.switch_cpus_10.iq.FU_type_0::SimdFloatReduceAdd            0      0.00%     72.61% # Type of FU issued
system.switch_cpus_10.iq.FU_type_0::SimdFloatReduceCmp            0      0.00%     72.61% # Type of FU issued
system.switch_cpus_10.iq.FU_type_0::SimdAes            0      0.00%     72.61% # Type of FU issued
system.switch_cpus_10.iq.FU_type_0::SimdAesMix            0      0.00%     72.61% # Type of FU issued
system.switch_cpus_10.iq.FU_type_0::SimdSha1Hash            0      0.00%     72.61% # Type of FU issued
system.switch_cpus_10.iq.FU_type_0::SimdSha1Hash2            0      0.00%     72.61% # Type of FU issued
system.switch_cpus_10.iq.FU_type_0::SimdSha256Hash            0      0.00%     72.61% # Type of FU issued
system.switch_cpus_10.iq.FU_type_0::SimdSha256Hash2            0      0.00%     72.61% # Type of FU issued
system.switch_cpus_10.iq.FU_type_0::SimdShaSigma2            0      0.00%     72.61% # Type of FU issued
system.switch_cpus_10.iq.FU_type_0::SimdShaSigma3            0      0.00%     72.61% # Type of FU issued
system.switch_cpus_10.iq.FU_type_0::SimdPredAlu            0      0.00%     72.61% # Type of FU issued
system.switch_cpus_10.iq.FU_type_0::MemRead      8004852     12.05%     84.65% # Type of FU issued
system.switch_cpus_10.iq.FU_type_0::MemWrite      1466784      2.21%     86.86% # Type of FU issued
system.switch_cpus_10.iq.FU_type_0::FloatMemRead      6940530     10.45%     97.31% # Type of FU issued
system.switch_cpus_10.iq.FU_type_0::FloatMemWrite      1788084      2.69%    100.00% # Type of FU issued
system.switch_cpus_10.iq.FU_type_0::IprAccess            0      0.00%    100.00% # Type of FU issued
system.switch_cpus_10.iq.FU_type_0::InstPrefetch            0      0.00%    100.00% # Type of FU issued
system.switch_cpus_10.iq.FU_type_0::total     66437835                       # Type of FU issued
system.switch_cpus_10.iq.fp_alu_accesses     25613345                       # Number of floating point alu accesses
system.switch_cpus_10.iq.fp_inst_queue_reads     50656375                       # Number of floating instruction queue reads
system.switch_cpus_10.iq.fp_inst_queue_wakeup_accesses     24952603                       # Number of floating instruction queue wakeup accesses
system.switch_cpus_10.iq.fp_inst_queue_writes     25876341                       # Number of floating instruction queue writes
system.switch_cpus_10.iq.fu_busy_cnt          1225185                       # FU busy when requested
system.switch_cpus_10.iq.fu_busy_rate        0.018441                       # FU busy rate (busy events/executed inst)
system.switch_cpus_10.iq.fu_full::No_OpClass            0      0.00%      0.00% # attempts to use FU when none available
system.switch_cpus_10.iq.fu_full::IntAlu       264312     21.57%     21.57% # attempts to use FU when none available
system.switch_cpus_10.iq.fu_full::IntMult            0      0.00%     21.57% # attempts to use FU when none available
system.switch_cpus_10.iq.fu_full::IntDiv            0      0.00%     21.57% # attempts to use FU when none available
system.switch_cpus_10.iq.fu_full::FloatAdd            0      0.00%     21.57% # attempts to use FU when none available
system.switch_cpus_10.iq.fu_full::FloatCmp            0      0.00%     21.57% # attempts to use FU when none available
system.switch_cpus_10.iq.fu_full::FloatCvt            0      0.00%     21.57% # attempts to use FU when none available
system.switch_cpus_10.iq.fu_full::FloatMult            0      0.00%     21.57% # attempts to use FU when none available
system.switch_cpus_10.iq.fu_full::FloatMultAcc            0      0.00%     21.57% # attempts to use FU when none available
system.switch_cpus_10.iq.fu_full::FloatDiv            0      0.00%     21.57% # attempts to use FU when none available
system.switch_cpus_10.iq.fu_full::FloatMisc            0      0.00%     21.57% # attempts to use FU when none available
system.switch_cpus_10.iq.fu_full::FloatSqrt            0      0.00%     21.57% # attempts to use FU when none available
system.switch_cpus_10.iq.fu_full::SimdAdd            5      0.00%     21.57% # attempts to use FU when none available
system.switch_cpus_10.iq.fu_full::SimdAddAcc            0      0.00%     21.57% # attempts to use FU when none available
system.switch_cpus_10.iq.fu_full::SimdAlu        18355      1.50%     23.07% # attempts to use FU when none available
system.switch_cpus_10.iq.fu_full::SimdCmp            3      0.00%     23.07% # attempts to use FU when none available
system.switch_cpus_10.iq.fu_full::SimdCvt          320      0.03%     23.10% # attempts to use FU when none available
system.switch_cpus_10.iq.fu_full::SimdMisc        54475      4.45%     27.54% # attempts to use FU when none available
system.switch_cpus_10.iq.fu_full::SimdMult            0      0.00%     27.54% # attempts to use FU when none available
system.switch_cpus_10.iq.fu_full::SimdMultAcc            0      0.00%     27.54% # attempts to use FU when none available
system.switch_cpus_10.iq.fu_full::SimdShift            2      0.00%     27.54% # attempts to use FU when none available
system.switch_cpus_10.iq.fu_full::SimdShiftAcc            0      0.00%     27.54% # attempts to use FU when none available
system.switch_cpus_10.iq.fu_full::SimdDiv            0      0.00%     27.54% # attempts to use FU when none available
system.switch_cpus_10.iq.fu_full::SimdSqrt            0      0.00%     27.54% # attempts to use FU when none available
system.switch_cpus_10.iq.fu_full::SimdFloatAdd            0      0.00%     27.54% # attempts to use FU when none available
system.switch_cpus_10.iq.fu_full::SimdFloatAlu            0      0.00%     27.54% # attempts to use FU when none available
system.switch_cpus_10.iq.fu_full::SimdFloatCmp            0      0.00%     27.54% # attempts to use FU when none available
system.switch_cpus_10.iq.fu_full::SimdFloatCvt            0      0.00%     27.54% # attempts to use FU when none available
system.switch_cpus_10.iq.fu_full::SimdFloatDiv            0      0.00%     27.54% # attempts to use FU when none available
system.switch_cpus_10.iq.fu_full::SimdFloatMisc            0      0.00%     27.54% # attempts to use FU when none available
system.switch_cpus_10.iq.fu_full::SimdFloatMult            0      0.00%     27.54% # attempts to use FU when none available
[...]
system.cpu1.l2cache.ReadSharedReq_avg_mshr_miss_latency::.switch_cpus1.data 156611.070248                       # average ReadSharedReq mshr miss latency
system.cpu1.l2cache.ReadSharedReq_avg_mshr_miss_latency::.switch_cpus_11.data 166517.431721                       # average ReadSharedReq mshr miss latency
system.cpu1.l2cache.ReadSharedReq_avg_mshr_miss_latency::total 166118.606322                       # average ReadSharedReq mshr miss latency
system.cpu1.l2cache.tags.pwrStateResidencyTicks::UNDEFINED 1321847503947                       # Cumulative time (in ticks) in various power states
system.cpu1.l2cache.tags.tagsinuse          80.155104                       # Cycle average of tags in use
system.cpu1.l2cache.tags.total_refs            113236                       # Total number of references to valid blocks.
system.cpu1.l2cache.tags.sampled_refs           30365                       # Sample count of references to valid blocks.
system.cpu1.l2cache.tags.avg_refs            3.729162                       # Average number of references to valid blocks.
system.cpu1.l2cache.tags.warmup_cycle    1293351708033                       # Cycle when the warmup percentage was hit.
system.cpu1.l2cache.tags.occ_blocks::.cpu1.inst     0.003880                       # Average occupied blocks per requestor
system.cpu1.l2cache.tags.occ_blocks::.cpu1.data     0.021558                       # Average occupied blocks per requestor
system.cpu1.l2cache.tags.occ_blocks::.switch_cpus1.inst     0.725839                       # Average occupied blocks per requestor
system.cpu1.l2cache.tags.occ_blocks::.switch_cpus1.data    11.870079                       # Average occupied blocks per requestor
system.cpu1.l2cache.tags.occ_blocks::.switch_cpus_11.inst     0.191307                       # Average occupied blocks per requestor
system.cpu1.l2cache.tags.occ_blocks::.switch_cpus_11.data    67.342442                       # Average occupied blocks per requestor
system.cpu1.l2cache.tags.occ_percent::.cpu1.inst     0.000001                       # Average percentage of cache occupancy
system.cpu1.l2cache.tags.occ_percent::.cpu1.data     0.000005                       # Average percentage of cache occupancy
system.cpu1.l2cache.tags.occ_percent::.switch_cpus1.inst     0.000177                       # Average percentage of cache occupancy
system.cpu1.l2cache.tags.occ_percent::.switch_cpus1.data     0.002898                       # Average percentage of cache occupancy
system.cpu1.l2cache.tags.occ_percent::.switch_cpus_11.inst     0.000047                       # Average percentage of cache occupancy
system.cpu1.l2cache.tags.occ_percent::.switch_cpus_11.data     0.016441                       # Average percentage of cache occupancy
system.cpu1.l2cache.tags.occ_percent::total     0.019569                       # Average percentage of cache occupancy
system.cpu1.l2cache.tags.occ_task_id_blocks::1024         4096                       # Occupied blocks per task id
system.cpu1.l2cache.tags.age_task_id_blocks_1024::0            1                       # Occupied blocks per task id
system.cpu1.l2cache.tags.age_task_id_blocks_1024::1           77                       # Occupied blocks per task id
system.cpu1.l2cache.tags.age_task_id_blocks_1024::2          997                       # Occupied blocks per task id
system.cpu1.l2cache.tags.age_task_id_blocks_1024::3         2512                       # Occupied blocks per task id
system.cpu1.l2cache.tags.age_task_id_blocks_1024::4          509                       # Occupied blocks per task id
system.cpu1.l2cache.tags.occ_task_id_percent::1024            1                       # Percentage of cache occupancy per task id
system.cpu1.l2cache.tags.tag_accesses         1842253                       # Number of tag accesses
system.cpu1.l2cache.tags.data_accesses        1842253                       # Number of data accesses
system.cpu1.toL2Bus.pwrStateResidencyTicks::UNDEFINED 1321847503947                       # Cumulative time (in ticks) in various power states
system.cpu1.toL2Bus.trans_dist::ReadResp        56894                       # Transaction distribution
system.cpu1.toL2Bus.trans_dist::WritebackDirty          185                       # Transaction distribution
system.cpu1.toL2Bus.trans_dist::CleanEvict        82572                       # Transaction distribution
system.cpu1.toL2Bus.trans_dist::ReadExReq          148                       # Transaction distribution
system.cpu1.toL2Bus.trans_dist::ReadExResp          148                       # Transaction distribution
system.cpu1.toL2Bus.trans_dist::ReadCleanReq          285                       # Transaction distribution
system.cpu1.toL2Bus.trans_dist::ReadSharedReq        56609                       # Transaction distribution
system.cpu1.toL2Bus.pkt_count_system.cpu1.icache.mem_side::system.cpu1.l2cache.cpu_side          570                       # Packet count per connected master and slave (bytes)
system.cpu1.toL2Bus.pkt_count_system.cpu1.dcache.mem_side::system.cpu1.l2cache.cpu_side       169759                       # Packet count per connected master and slave (bytes)
system.cpu1.toL2Bus.pkt_count::total           170329                       # Packet count per connected master and slave (bytes)
system.cpu1.toL2Bus.pkt_size_system.cpu1.icache.mem_side::system.cpu1.l2cache.cpu_side        18240                       # Cumulative packet size per connected master and slave (bytes)
system.cpu1.toL2Bus.pkt_size_system.cpu1.dcache.mem_side::system.cpu1.l2cache.cpu_side      3643776                       # Cumulative packet size per connected master and slave (bytes)
system.cpu1.toL2Bus.pkt_size::total           3662016                       # Cumulative packet size per connected master and slave (bytes)
system.cpu1.toL2Bus.snoops                      26512                       # Total snoops (count)
system.cpu1.toL2Bus.snoopTraffic                  512                       # Total snoop traffic (bytes)
system.cpu1.toL2Bus.snoop_fanout::samples        83554                       # Request fanout histogram
system.cpu1.toL2Bus.snoop_fanout::mean       0.006535                       # Request fanout histogram
system.cpu1.toL2Bus.snoop_fanout::stdev      0.080573                       # Request fanout histogram
system.cpu1.toL2Bus.snoop_fanout::underflows            0      0.00%      0.00% # Request fanout histogram
system.cpu1.toL2Bus.snoop_fanout::0             83008     99.35%     99.35% # Request fanout histogram
system.cpu1.toL2Bus.snoop_fanout::1               546      0.65%    100.00% # Request fanout histogram
system.cpu1.toL2Bus.snoop_fanout::2                 0      0.00%    100.00% # Request fanout histogram
system.cpu1.toL2Bus.snoop_fanout::3                 0      0.00%    100.00% # Request fanout histogram
system.cpu1.toL2Bus.snoop_fanout::4                 0      0.00%    100.00% # Request fanout histogram
system.cpu1.toL2Bus.snoop_fanout::overflows            0      0.00%    100.00% # Request fanout histogram
system.cpu1.toL2Bus.snoop_fanout::min_value            0                       # Request fanout histogram
system.cpu1.toL2Bus.snoop_fanout::max_value            1                       # Request fanout histogram
system.cpu1.toL2Bus.snoop_fanout::total         83554                       # Request fanout histogram
system.cpu1.toL2Bus.reqLayer0.occupancy      47387463                       # Layer occupancy (ticks)
system.cpu1.toL2Bus.reqLayer0.utilization          0.2                       # Layer utilization (%)
system.cpu1.toL2Bus.respLayer1.occupancy     71001756                       # Layer occupancy (ticks)
system.cpu1.toL2Bus.respLayer1.utilization          0.2                       # Layer utilization (%)
system.cpu1.toL2Bus.respLayer0.occupancy       355284                       # Layer occupancy (ticks)
system.cpu1.toL2Bus.respLayer0.utilization          0.0                       # Layer utilization (%)
system.switch_cpus_10.pwrStateResidencyTicks::OFF  28495796331                       # Cumulative time (in ticks) in various power states
system.switch_cpus_10.dtb.walker.pwrStateResidencyTicks::UNDEFINED 1321847503947                       # Cumulative time (in ticks) in various power states
system.switch_cpus_10.itb.walker.pwrStateResidencyTicks::UNDEFINED 1321847503947                       # Cumulative time (in ticks) in various power states
system.switch_cpus_11.pwrStateResidencyTicks::OFF  28495796331                       # Cumulative time (in ticks) in various power states
system.switch_cpus_11.dtb.walker.pwrStateResidencyTicks::UNDEFINED 1321847503947                       # Cumulative time (in ticks) in various power states
system.switch_cpus_11.itb.walker.pwrStateResidencyTicks::UNDEFINED 1321847503947                       # Cumulative time (in ticks) in various power states
system.cpu_voltage_domain.voltage                   1                       # Voltage in Volts
system.switch_cpus1.numPwrStateTransitions            1                       # Number of power state transitions
system.switch_cpus1.pwrStateResidencyTicks::UNDEFINED 1293351707616                       # Cumulative time (in ticks) in various power states
system.switch_cpus1.pwrStateResidencyTicks::OFF  28495796331                       # Cumulative time (in ticks) in various power states
system.switch_cpus1.dtb.walker.pwrStateResidencyTicks::UNDEFINED 1321847503947                       # Cumulative time (in ticks) in various power states
system.switch_cpus1.itb.walker.pwrStateResidencyTicks::UNDEFINED 1321847503947                       # Cumulative time (in ticks) in various power states
system.mem_ctrls.pwrStateResidencyTicks::UNDEFINED 1321847503947                       # Cumulative time (in ticks) in various power states
system.mem_ctrls.bytes_read::.cpu0.inst            64                       # Number of bytes read from this memory
system.mem_ctrls.bytes_read::.cpu1.inst            64                       # Number of bytes read from this memory
system.mem_ctrls.bytes_read::.cpu1.data            64                       # Number of bytes read from this memory
system.mem_ctrls.bytes_read::.switch_cpus0.inst        78144                       # Number of bytes read from this memory
system.mem_ctrls.bytes_read::.switch_cpus0.data       280448                       # Number of bytes read from this memory
system.mem_ctrls.bytes_read::.switch_cpus1.inst        12672                       # Number of bytes read from this memory
system.mem_ctrls.bytes_read::.switch_cpus1.data        78784                       # Number of bytes read from this memory
system.mem_ctrls.bytes_read::.switch_cpus_10.inst       312448                       # Number of bytes read from this memory
system.mem_ctrls.bytes_read::.switch_cpus_10.data     12756096                       # Number of bytes read from this memory
system.mem_ctrls.bytes_read::.switch_cpus_11.inst         5504                       # Number of bytes read from this memory
system.mem_ctrls.bytes_read::.switch_cpus_11.data      1844864                       # Number of bytes read from this memory
system.mem_ctrls.bytes_read::total           15369152                       # Number of bytes read from this memory
system.mem_ctrls.bytes_inst_read::.cpu0.inst           64                       # Number of instructions bytes read from this memory
system.mem_ctrls.bytes_inst_read::.cpu1.inst           64                       # Number of instructions bytes read from this memory
system.mem_ctrls.bytes_inst_read::.switch_cpus0.inst        78144                       # Number of instructions bytes read from this memory
system.mem_ctrls.bytes_inst_read::.switch_cpus1.inst        12672                       # Number of instructions bytes read from this memory
system.mem_ctrls.bytes_inst_read::.switch_cpus_10.inst       312448                       # Number of instructions bytes read from this memory
system.mem_ctrls.bytes_inst_read::.switch_cpus_11.inst         5504                       # Number of instructions bytes read from this memory
system.mem_ctrls.bytes_inst_read::total        408896                       # Number of instructions bytes read from this memory
system.mem_ctrls.bytes_written::.switch_cpus0.data        48768                       # Number of bytes written to this memory
system.mem_ctrls.bytes_written::.switch_cpus1.data           64                       # Number of bytes written to this memory
system.mem_ctrls.bytes_written::.switch_cpus_10.inst           64                       # Number of bytes written to this memory
system.mem_ctrls.bytes_written::.switch_cpus_10.data     10561472                       # Number of bytes written to this memory
system.mem_ctrls.bytes_written::total        10610368                       # Number of bytes written to this memory
system.mem_ctrls.num_reads::.cpu0.inst              1                       # Number of read requests responded to by this memory
system.mem_ctrls.num_reads::.cpu1.inst              1                       # Number of read requests responded to by this memory
system.mem_ctrls.num_reads::.cpu1.data              1                       # Number of read requests responded to by this memory
system.mem_ctrls.num_reads::.switch_cpus0.inst         1221                       # Number of read requests responded to by this memory
system.mem_ctrls.num_reads::.switch_cpus0.data         4382                       # Number of read requests responded to by this memory
system.mem_ctrls.num_reads::.switch_cpus1.inst          198                       # Number of read requests responded to by this memory
system.mem_ctrls.num_reads::.switch_cpus1.data         1231                       # Number of read requests responded to by this memory
system.mem_ctrls.num_reads::.switch_cpus_10.inst         4882                       # Number of read requests responded to by this memory
system.mem_ctrls.num_reads::.switch_cpus_10.data       199314                       # Number of read requests responded to by this memory
system.mem_ctrls.num_reads::.switch_cpus_11.inst           86                       # Number of read requests responded to by this memory
system.mem_ctrls.num_reads::.switch_cpus_11.data        28826                       # Number of read requests responded to by this memory
system.mem_ctrls.num_reads::total              240143                       # Number of read requests responded to by this memory
system.mem_ctrls.num_writes::.switch_cpus0.data          762                       # Number of write requests responded to by this memory
system.mem_ctrls.num_writes::.switch_cpus1.data            1                       # Number of write requests responded to by this memory
system.mem_ctrls.num_writes::.switch_cpus_10.inst            1                       # Number of write requests responded to by this memory
system.mem_ctrls.num_writes::.switch_cpus_10.data       165023                       # Number of write requests responded to by this memory
system.mem_ctrls.num_writes::total             165787                       # Number of write requests responded to by this memory
system.mem_ctrls.bw_read::.cpu0.inst             2246                       # Total read bandwidth from this memory (bytes/s)
system.mem_ctrls.bw_read::.cpu1.inst             2246                       # Total read bandwidth from this memory (bytes/s)
system.mem_ctrls.bw_read::.cpu1.data             2246                       # Total read bandwidth from this memory (bytes/s)
system.mem_ctrls.bw_read::.switch_cpus0.inst      2742299                       # Total read bandwidth from this memory (bytes/s)
system.mem_ctrls.bw_read::.switch_cpus0.data      9841732                       # Total read bandwidth from this memory (bytes/s)
system.mem_ctrls.bw_read::.switch_cpus1.inst       444697                       # Total read bandwidth from this memory (bytes/s)
system.mem_ctrls.bw_read::.switch_cpus1.data      2764759                       # Total read bandwidth from this memory (bytes/s)
system.mem_ctrls.bw_read::.switch_cpus_10.inst     10964705                       # Total read bandwidth from this memory (bytes/s)
system.mem_ctrls.bw_read::.switch_cpus_10.data    447648343                       # Total read bandwidth from this memory (bytes/s)
system.mem_ctrls.bw_read::.switch_cpus_11.inst       193151                       # Total read bandwidth from this memory (bytes/s)
system.mem_ctrls.bw_read::.switch_cpus_11.data     64741619                       # Total read bandwidth from this memory (bytes/s)
system.mem_ctrls.bw_read::total             539348044                       # Total read bandwidth from this memory (bytes/s)
system.mem_ctrls.bw_inst_read::.cpu0.inst         2246                       # Instruction read bandwidth from this memory (bytes/s)
system.mem_ctrls.bw_inst_read::.cpu1.inst         2246                       # Instruction read bandwidth from this memory (bytes/s)
system.mem_ctrls.bw_inst_read::.switch_cpus0.inst      2742299                       # Instruction read bandwidth from this memory (bytes/s)
system.mem_ctrls.bw_inst_read::.switch_cpus1.inst       444697                       # Instruction read bandwidth from this memory (bytes/s)
system.mem_ctrls.bw_inst_read::.switch_cpus_10.inst     10964705                       # Instruction read bandwidth from this memory (bytes/s)
system.mem_ctrls.bw_inst_read::.switch_cpus_11.inst       193151                       # Instruction read bandwidth from this memory (bytes/s)
system.mem_ctrls.bw_inst_read::total         14349345                       # Instruction read bandwidth from this memory (bytes/s)
system.mem_ctrls.bw_write::.switch_cpus0.data      1711410                       # Write bandwidth from this memory (bytes/s)
system.mem_ctrls.bw_write::.switch_cpus1.data         2246                       # Write bandwidth from this memory (bytes/s)
system.mem_ctrls.bw_write::.switch_cpus_10.inst         2246                       # Write bandwidth from this memory (bytes/s)
system.mem_ctrls.bw_write::.switch_cpus_10.data    370632632                       # Write bandwidth from this memory (bytes/s)
system.mem_ctrls.bw_write::total            372348534                       # Write bandwidth from this memory (bytes/s)
system.mem_ctrls.bw_total::.cpu0.inst            2246                       # Total bandwidth to/from this memory (bytes/s)
system.mem_ctrls.bw_total::.cpu1.inst            2246                       # Total bandwidth to/from this memory (bytes/s)
system.mem_ctrls.bw_total::.cpu1.data            2246                       # Total bandwidth to/from this memory (bytes/s)
system.mem_ctrls.bw_total::.switch_cpus0.inst      2742299                       # Total bandwidth to/from this memory (bytes/s)
system.mem_ctrls.bw_total::.switch_cpus0.data     11553143                       # Total bandwidth to/from this memory (bytes/s)
system.mem_ctrls.bw_total::.switch_cpus1.inst       444697                       # Total bandwidth to/from this memory (bytes/s)
system.mem_ctrls.bw_total::.switch_cpus1.data      2767005                       # Total bandwidth to/from this memory (bytes/s)
system.mem_ctrls.bw_total::.switch_cpus_10.inst     10966951                       # Total bandwidth to/from this memory (bytes/s)
system.mem_ctrls.bw_total::.switch_cpus_10.data    818280975                       # Total bandwidth to/from this memory (bytes/s)
system.mem_ctrls.bw_total::.switch_cpus_11.inst       193151                       # Total bandwidth to/from this memory (bytes/s)
system.mem_ctrls.bw_total::.switch_cpus_11.data     64741619                       # Total bandwidth to/from this memory (bytes/s)
system.mem_ctrls.bw_total::total            911696578                       # Total bandwidth to/from this memory (bytes/s)
system.cpu_clk_domain.clock                       417                       # Clock period in ticks

---------- End Simulation Statistics   ----------
