
---------- Begin Simulation Statistics ----------
final_tick                               1320425425527                       # Number of ticks from beginning of simulation (restored from checkpoints and never reset)
host_inst_rate                                 137237                       # Simulator instruction rate (inst/s)
host_mem_usage                                4448312                       # Number of bytes of host memory used
host_op_rate                                   277646                       # Simulator op (including micro ops) rate (op/s)
host_seconds                                   379.51                       # Real time elapsed on the host
host_tick_rate                               71337859                       # Simulator tick rate (ticks/s)
sim_freq                                 1000000000000                       # Frequency of simulated ticks
sim_insts                                    52083342                       # Number of instructions simulated
sim_ops                                     105370404                       # Number of ops (including micro ops) simulated
sim_seconds                                  0.027074                       # Number of seconds simulated
sim_ticks                                 27073717911                       # Number of ticks simulated
system.cpu0.committedInsts                          2                       # Number of instructions committed
system.cpu0.committedOps                            3                       # Number of ops (including micro ops) committed
system.cpu0.dtb.rdAccesses                          0                       # TLB accesses on read requests
system.cpu0.dtb.rdMisses                            0                       # TLB misses on read requests
system.cpu0.dtb.wrAccesses                          1                       # TLB accesses on write requests
system.cpu0.dtb.wrMisses                            0                       # TLB misses on write requests
system.cpu0.idle_fraction                           0                       # Percentage of idle cycles
system.cpu0.itb.rdAccesses                          0                       # TLB accesses on read requests
system.cpu0.itb.rdMisses                            0                       # TLB misses on read requests
system.cpu0.itb.wrAccesses                          2                       # TLB accesses on write requests
system.cpu0.itb.wrMisses                            0                       # TLB misses on write requests
system.cpu0.not_idle_fraction                       1                       # Percentage of non-idle cycles
system.cpu0.numCycles                               3                       # number of cpu cycles simulated
system.cpu0.numWorkItemsCompleted                   0                       # number of work items this cpu completed
system.cpu0.numWorkItemsStarted                     0                       # number of work items this cpu started
system.cpu0.num_busy_cycles                         3                       # Number of busy cycles
system.cpu0.num_cc_register_reads                   1                       # number of times the CC registers were read
system.cpu0.num_cc_register_writes                  2                       # number of times the CC registers were written
system.cpu0.num_conditional_control_insts            0                       # number of instructions that are conditional controls
system.cpu0.num_fp_alu_accesses                     0                       # Number of float alu accesses
system.cpu0.num_fp_insts                            0                       # number of float instructions
system.cpu0.num_fp_register_reads                   0                       # number of times the floating registers were read
system.cpu0.num_fp_register_writes                  0                       # number of times the floating registers were written
system.cpu0.num_func_calls                          0                       # number of times a function call or return occured
system.cpu0.num_idle_cycles                         0                       # Number of idle cycles
system.cpu0.num_int_alu_accesses                    3                       # Number of integer alu accesses
system.cpu0.num_int_insts                           3                       # number of integer instructions
system.cpu0.num_int_register_reads                  7                       # number of times the integer registers were read
system.cpu0.num_int_register_writes                 2                       # number of times the integer registers were written
system.cpu0.num_load_insts                          0                       # Number of load instructions
system.cpu0.num_mem_refs                            1                       # number of memory refs
system.cpu0.num_store_insts                         1                       # Number of store instructions
system.cpu0.num_vec_alu_accesses                    0                       # Number of vector alu accesses
system.cpu0.num_vec_insts                           0                       # number of vector instructions
system.cpu0.num_vec_register_reads                  0                       # number of times the vector registers were read
system.cpu0.num_vec_register_writes                 0                       # number of times the vector registers were written
system.cpu0.op_class::No_OpClass                    0      0.00%      0.00% # Class of executed instruction
system.cpu0.op_class::IntAlu                        2     66.67%     66.67% # Class of executed instruction
system.cpu0.op_class::IntMult                       0      0.00%     66.67% # Class of executed instruction
system.cpu0.op_class::IntDiv                        0      0.00%     66.67% # Class of executed instruction
system.cpu0.op_class::FloatAdd                      0      0.00%     66.67% # Class of executed instruction
system.cpu0.op_class::FloatCmp                      0      0.00%     66.67% # Class of executed instruction
system.cpu0.op_class::FloatCvt                      0      0.00%     66.67% # Class of executed instruction
system.cpu0.op_class::FloatMult                     0      0.00%     66.67% # Class of executed instruction
system.cpu0.op_class::FloatMultAcc                  0      0.00%     66.67% # Class of executed instruction
system.cpu0.op_class::FloatDiv                      0      0.00%     66.67% # Class of executed instruction
system.cpu0.op_class::FloatMisc                     0      0.00%     66.67% # Class of executed instruction
system.cpu0.op_class::FloatSqrt                     0      0.00%     66.67% # Class of executed instruction
system.cpu0.op_class::SimdAdd                       0      0.00%     66.67% # Class of executed instruction
system.cpu0.op_class::SimdAddAcc                    0      0.00%     66.67% # Class of executed instruction
system.cpu0.op_class::SimdAlu                       0      0.00%     66.67% # Class of executed instruction
system.cpu0.op_class::SimdCmp                       0      0.00%     66.67% # Class of executed instruction
system.cpu0.op_class::SimdCvt                       0      0.00%     66.67% # Class of executed instruction
system.cpu0.op_class::SimdMisc                      0      0.00%     66.67% # Class of executed instruction
system.cpu0.op_class::SimdMult                      0      0.00%     66.67% # Class of executed instruction
system.cpu0.op_class::SimdMultAcc                   0      0.00%     66.67% # Class of executed instruction
system.cpu0.op_class::SimdShift                     0      0.00%     66.67% # Class of executed instruction
system.cpu0.op_class::SimdShiftAcc                  0      0.00%     66.67% # Class of executed instruction
system.cpu0.op_class::SimdDiv                       0      0.00%     66.67% # Class of executed instruction
system.cpu0.op_class::SimdSqrt                      0      0.00%     66.67% # Class of executed instruction
system.cpu0.op_class::SimdFloatAdd                  0      0.00%     66.67% # Class of executed instruction
system.cpu0.op_class::SimdFloatAlu                  0      0.00%     66.67% # Class of executed instruction
system.cpu0.op_class::SimdFloatCmp                  0      0.00%     66.67% # Class of executed instruction
system.cpu0.op_class::SimdFloatCvt                  0      0.00%     66.67% # Class of executed instruction
system.cpu0.op_class::SimdFloatDiv                  0      0.00%     66.67% # Class of executed instruction
system.cpu0.op_class::SimdFloatMisc                 0      0.00%     66.67% # Class of executed instruction
system.cpu0.op_class::SimdFloatMult                 0      0.00%     66.67% # Class of executed instruction
system.cpu0.op_class::SimdFloatMultAcc              0      0.00%     66.67% # Class of executed instruction
system.cpu0.op_class::SimdFloatSqrt                 0      0.00%     66.67% # Class of executed instruction
system.cpu0.op_class::SimdReduceAdd                 0      0.00%     66.67% # Class of executed instruction
system.cpu0.op_class::SimdReduceAlu                 0      0.00%     66.67% # Class of executed instruction
system.cpu0.op_class::SimdReduceCmp                 0      0.00%     66.67% # Class of executed instruction
system.cpu0.op_class::SimdFloatReduceAdd            0      0.00%     66.67% # Class of executed instruction
system.cpu0.op_class::SimdFloatReduceCmp            0      0.00%     66.67% # Class of executed instruction
system.cpu0.op_class::SimdAes                       0      0.00%     66.67% # Class of executed instruction
system.cpu0.op_class::SimdAesMix                    0      0.00%     66.67% # Class of executed instruction
system.cpu0.op_class::SimdSha1Hash                  0      0.00%     66.67% # Class of executed instruction
system.cpu0.op_class::SimdSha1Hash2                 0      0.00%     66.67% # Class of executed instruction
system.cpu0.op_class::SimdSha256Hash                0      0.00%     66.67% # Class of executed instruction
system.cpu0.op_class::SimdSha256Hash2               0      0.00%     66.67% # Class of executed instruction
system.cpu0.op_class::SimdShaSigma2                 0      0.00%     66.67% # Class of executed instruction
system.cpu0.op_class::SimdShaSigma3                 0      0.00%     66.67% # Class of executed instruction
system.cpu0.op_class::SimdPredAlu                   0      0.00%     66.67% # Class of executed instruction
system.cpu0.op_class::MemRead                       0      0.00%     66.67% # Class of executed instruction
system.cpu0.op_class::MemWrite                      1     33.33%    100.00% # Class of executed instruction
system.cpu0.op_class::FloatMemRead                  0      0.00%    100.00% # Class of executed instruction
system.cpu0.op_class::FloatMemWrite                 0      0.00%    100.00% # Class of executed instruction
system.cpu0.op_class::IprAccess                     0      0.00%    100.00% # Class of executed instruction
system.cpu0.op_class::InstPrefetch                  0      0.00%    100.00% # Class of executed instruction
system.cpu0.op_class::total                         3                       # Class of executed instruction
system.cpu0.toL2Bus.snoop_filter.hit_multi_requests            3                       # Number of requests hitting in the snoop filter with multiple (>1) holders of the requested data.
system.cpu0.toL2Bus.snoop_filter.hit_multi_snoops            0                       # Number of snoops hitting in the snoop filter with multiple (>1) holders of the requested data.
system.cpu0.toL2Bus.snoop_filter.hit_single_requests          245                       # Number of requests hitting in the snoop filter with a single holder of the requested data.
system.cpu0.toL2Bus.snoop_filter.hit_single_snoops            0                       # Number of snoops hitting in the snoop filter with a single holder of the requested data.
system.cpu0.toL2Bus.snoop_filter.tot_requests         1412                       # Total number of requests made to the snoop filter.
system.cpu0.toL2Bus.snoop_filter.tot_snoops            0                       # Total number of snoops made to the snoop filter.
system.cpu0.toL3Bus.snoop_filter.hit_multi_requests            0                       # Number of requests hitting in the snoop filter with multiple (>1) holders of the requested data.
system.cpu0.toL3Bus.snoop_filter.hit_multi_snoops            0                       # Number of snoops hitting in the snoop filter with multiple (>1) holders of the requested data.
system.cpu0.toL3Bus.snoop_filter.hit_single_requests            0                       # Number of requests hitting in the snoop filter with a single holder of the requested data.
system.cpu0.toL3Bus.snoop_filter.hit_single_snoops            0                       # Number of snoops hitting in the snoop filter with a single holder of the requested data.
system.cpu0.toL3Bus.snoop_filter.tot_requests         1148                       # Total number of requests made to the snoop filter.
system.cpu0.toL3Bus.snoop_filter.tot_snoops            0                       # Total number of snoops made to the snoop filter.
system.cpu0.workload.numSyscalls                    7                       # Number of system calls
system.cpu1.Branches                                1                       # Number of branches fetched
system.cpu1.committedInsts                          1                       # Number of instructions committed
system.cpu1.committedOps                            5                       # Number of ops (including micro ops) committed
system.cpu1.dtb.rdAccesses                          0                       # TLB accesses on read requests
system.cpu1.dtb.rdMisses                            0                       # TLB misses on read requests
system.cpu1.dtb.wrAccesses                          1                       # TLB accesses on write requests
system.cpu1.dtb.wrMisses                            0                       # TLB misses on write requests
system.cpu1.idle_fraction                           0                       # Percentage of idle cycles
system.cpu1.itb.rdAccesses                          0                       # TLB accesses on read requests
system.cpu1.itb.rdMisses                            0                       # TLB misses on read requests
system.cpu1.itb.wrAccesses                          2                       # TLB accesses on write requests
system.cpu1.itb.wrMisses                            0                       # TLB misses on write requests
system.cpu1.not_idle_fraction                       1                       # Percentage of non-idle cycles
system.cpu1.numCycles                               6                       # number of cpu cycles simulated
system.cpu1.numWorkItemsCompleted                   0                       # number of work items this cpu completed
system.cpu1.numWorkItemsStarted                     0                       # number of work items this cpu started
system.cpu1.num_busy_cycles                         6                       # Number of busy cycles
system.cpu1.num_conditional_control_insts            0                       # number of instructions that are conditional controls
system.cpu1.num_fp_alu_accesses                     0                       # Number of float alu accesses
system.cpu1.num_fp_insts                            0                       # number of float instructions
system.cpu1.num_fp_register_reads                   0                       # number of times the floating registers were read
system.cpu1.num_fp_register_writes                  0                       # number of times the floating registers were written
system.cpu1.num_func_calls                          1                       # number of times a function call or return occured
system.cpu1.num_idle_cycles                         0                       # Number of idle cycles
system.cpu1.num_int_alu_accesses                    5                       # Number of integer alu accesses
system.cpu1.num_int_insts                           5                       # number of integer instructions
system.cpu1.num_int_register_reads                  9                       # number of times the integer registers were read
system.cpu1.num_int_register_writes                 3                       # number of times the integer registers were written
system.cpu1.num_load_insts                          0                       # Number of load instructions
system.cpu1.num_mem_refs                            1                       # number of memory refs
system.cpu1.num_store_insts                         1                       # Number of store instructions
system.cpu1.num_vec_alu_accesses                    0                       # Number of vector alu accesses
system.cpu1.num_vec_insts                           0                       # number of vector instructions
system.cpu1.num_vec_register_reads                  0                       # number of times the vector registers were read
system.cpu1.num_vec_register_writes                 0                       # number of times the vector registers were written
system.cpu1.op_class::No_OpClass                    0      0.00%      0.00% # Class of executed instruction
system.cpu1.op_class::IntAlu                        4     80.00%     80.00% # Class of executed instruction
system.cpu1.op_class::IntMult                       0      0.00%     80.00% # Class of executed instruction
system.cpu1.op_class::IntDiv                        0      0.00%     80.00% # Class of executed instruction
system.cpu1.op_class::FloatAdd                      0      0.00%     80.00% # Class of executed instruction
system.cpu1.op_class::FloatCmp                      0      0.00%     80.00% # Class of executed instruction
system.cpu1.op_class::FloatCvt                      0      0.00%     80.00% # Class of executed instruction
system.cpu1.op_class::FloatMult                     0      0.00%     80.00% # Class of executed instruction
system.cpu1.op_class::FloatMultAcc                  0      0.00%     80.00% # Class of executed instruction
system.cpu1.op_class::FloatDiv                      0      0.00%     80.00% # Class of executed instruction
system.cpu1.op_class::FloatMisc                     0      0.00%     80.00% # Class of executed instruction
system.cpu1.op_class::FloatSqrt                     0      0.00%     80.00% # Class of executed instruction
system.cpu1.op_class::SimdAdd                       0      0.00%     80.00% # Class of executed instruction
system.cpu1.op_class::SimdAddAcc                    0      0.00%     80.00% # Class of executed instruction
system.cpu1.op_class::SimdAlu                       0      0.00%     80.00% # Class of executed instruction
system.cpu1.op_class::SimdCmp                       0      0.00%     80.00% # Class of executed instruction
system.cpu1.op_class::SimdCvt                       0      0.00%     80.00% # Class of executed instruction
system.cpu1.op_class::SimdMisc                      0      0.00%     80.00% # Class of executed instruction
system.cpu1.op_class::SimdMult                      0      0.00%     80.00% # Class of executed instruction
system.cpu1.op_class::SimdMultAcc                   0      0.00%     80.00% # Class of executed instruction
system.cpu1.op_class::SimdShift                     0      0.00%     80.00% # Class of executed instruction
system.cpu1.op_class::SimdShiftAcc                  0      0.00%     80.00% # Class of executed instruction
system.cpu1.op_class::SimdDiv                       0      0.00%     80.00% # Class of executed instruction
system.cpu1.op_class::SimdSqrt                      0      0.00%     80.00% # Class of executed instruction
system.cpu1.op_class::SimdFloatAdd                  0      0.00%     80.00% # Class of executed instruction
system.cpu1.op_class::SimdFloatAlu                  0      0.00%     80.00% # Class of executed instruction
system.cpu1.op_class::SimdFloatCmp                  0      0.00%     80.00% # Class of executed instruction
system.cpu1.op_class::SimdFloatCvt                  0      0.00%     80.00% # Class of executed instruction
system.cpu1.op_class::SimdFloatDiv                  0      0.00%     80.00% # Class of executed instruction
system.cpu1.op_class::SimdFloatMisc                 0      0.00%     80.00% # Class of executed instruction
system.cpu1.op_class::SimdFloatMult                 0      0.00%     80.00% # Class of executed instruction
system.cpu1.op_class::SimdFloatMultAcc              0      0.00%     80.00% # Class of executed instruction
system.cpu1.op_class::SimdFloatSqrt                 0      0.00%     80.00% # Class of executed instruction
system.cpu1.op_class::SimdReduceAdd                 0      0.00%     80.00% # Class of executed instruction
system.cpu1.op_class::SimdReduceAlu                 0      0.00%     80.00% # Class of executed instruction
system.cpu1.op_class::SimdReduceCmp                 0      0.00%     80.00% # Class of executed instruction
system.cpu1.op_class::SimdFloatReduceAdd            0      0.00%     80.00% # Class of executed instruction
system.cpu1.op_class::SimdFloatReduceCmp            0      0.00%     80.00% # Class of executed instruction
system.cpu1.op_class::SimdAes                       0      0.00%     80.00% # Class of executed instruction
system.cpu1.op_class::SimdAesMix                    0      0.00%     80.00% # Class of executed instruction
system.cpu1.op_class::SimdSha1Hash                  0      0.00%     80.00% # Class of executed instruction
system.cpu1.op_class::SimdSha1Hash2                 0      0.00%     80.00% # Class of executed instruction
system.cpu1.op_class::SimdSha256Hash                0      0.00%     80.00% # Class of executed instruction
system.cpu1.op_class::SimdSha256Hash2               0      0.00%     80.00% # Class of executed instruction
system.cpu1.op_class::SimdShaSigma2                 0      0.00%     80.00% # Class of executed instruction
system.cpu1.op_class::SimdShaSigma3                 0      0.00%     80.00% # Class of executed instruction
system.cpu1.op_class::SimdPredAlu                   0      0.00%     80.00% # Class of executed instruction
system.cpu1.op_class::MemRead                       0      0.00%     80.00% # Class of executed instruction
system.cpu1.op_class::MemWrite                      1     20.00%    100.00% # Class of executed instruction
system.cpu1.op_class::FloatMemRead                  0      0.00%    100.00% # Class of executed instruction
system.cpu1.op_class::FloatMemWrite                 0      0.00%    100.00% # Class of executed instruction
system.cpu1.op_class::IprAccess                     0      0.00%    100.00% # Class of executed instruction
system.cpu1.op_class::InstPrefetch                  0      0.00%    100.00% # Class of executed instruction
system.cpu1.op_class::total                         5                       # Class of executed instruction
system.cpu1.toL2Bus.snoop_filter.hit_multi_requests           45                       # Number of requests hitting in the snoop filter with multiple (>1) holders of the requested data.
system.cpu1.toL2Bus.snoop_filter.hit_multi_snoops            0                       # Number of snoops hitting in the snoop filter with multiple (>1) holders of the requested data.
system.cpu1.toL2Bus.snoop_filter.hit_single_requests        56230                       # Number of requests hitting in the snoop filter with a single holder of the requested data.
system.cpu1.toL2Bus.snoop_filter.hit_single_snoops          497                       # Number of snoops hitting in the snoop filter with a single holder of the requested data.
system.cpu1.toL2Bus.snoop_filter.tot_requests       113258                       # Total number of requests made to the snoop filter.
system.cpu1.toL2Bus.snoop_filter.tot_snoops          497                       # Total number of snoops made to the snoop filter.
system.cpu1.toL3Bus.snoop_filter.hit_multi_requests            0                       # Number of requests hitting in the snoop filter with multiple (>1) holders of the requested data.
system.cpu1.toL3Bus.snoop_filter.hit_multi_snoops            0                       # Number of snoops hitting in the snoop filter with multiple (>1) holders of the requested data.
system.cpu1.toL3Bus.snoop_filter.hit_single_requests        25935                       # Number of requests hitting in the snoop filter with a single holder of the requested data.
system.cpu1.toL3Bus.snoop_filter.hit_single_snoops          240                       # Number of snoops hitting in the snoop filter with a single holder of the requested data.
system.cpu1.toL3Bus.snoop_filter.tot_requests        56290                       # Total number of requests made to the snoop filter.
system.cpu1.toL3Bus.snoop_filter.tot_snoops          240                       # Total number of snoops made to the snoop filter.
system.cpu1.workload.numSyscalls                16979                       # Number of system calls
system.membus.snoop_filter.hit_multi_requests            0                       # Number of requests hitting in the snoop filter with multiple (>1) holders of the requested data.
system.membus.snoop_filter.hit_multi_snoops            0                       # Number of snoops hitting in the snoop filter with multiple (>1) holders of the requested data.
system.membus.snoop_filter.hit_single_requests          617                       # Number of requests hitting in the snoop filter with a single holder of the requested data.
system.membus.snoop_filter.hit_single_snoops            0                       # Number of snoops hitting in the snoop filter with a single holder of the requested data.
system.membus.snoop_filter.tot_requests         32101                       # Total number of requests made to the snoop filter.
system.membus.snoop_filter.tot_snoops               0                       # Total number of snoops made to the snoop filter.
system.switch_cpus0.Branches                   236425                       # Number of branches fetched
system.switch_cpus0.committedInsts            1000002                       # Number of instructions committed
system.switch_cpus0.committedOps              1894148                       # Number of ops (including micro ops) committed
system.switch_cpus0.dtb.rdAccesses             247055                       # TLB accesses on read requests
system.switch_cpus0.dtb.rdMisses                   20                       # TLB misses on read requests
system.switch_cpus0.dtb.wrAccesses             167083                       # TLB accesses on write requests
system.switch_cpus0.dtb.wrMisses                    5                       # TLB misses on write requests
system.switch_cpus0.idle_fraction            0.000000                       # Percentage of idle cycles
system.switch_cpus0.itb.rdAccesses                  0                       # TLB accesses on read requests
system.switch_cpus0.itb.rdMisses                    0                       # TLB misses on read requests
system.switch_cpus0.itb.wrAccesses            1412969                       # TLB accesses on write requests
system.switch_cpus0.itb.wrMisses                   23                       # TLB misses on write requests
system.switch_cpus0.not_idle_fraction        1.000000                       # Percentage of non-idle cycles
system.switch_cpus0.numCycles                 5576251                       # number of cpu cycles simulated
system.switch_cpus0.numWorkItemsCompleted            0                       # number of work items this cpu completed
system.switch_cpus0.numWorkItemsStarted             0                       # number of work items this cpu started
system.switch_cpus0.num_busy_cycles      5576250.484674                       # Number of busy cycles
system.switch_cpus0.num_cc_register_reads      1127592                       # number of times the CC registers were read
system.switch_cpus0.num_cc_register_writes       559208                       # number of times the CC registers were written
system.switch_cpus0.num_conditional_control_insts       186789                       # number of instructions that are conditional controls
system.switch_cpus0.num_fp_alu_accesses         15224                       # Number of float alu accesses
system.switch_cpus0.num_fp_insts                15224                       # number of float instructions
system.switch_cpus0.num_fp_register_reads         7942                       # number of times the floating registers were read
system.switch_cpus0.num_fp_register_writes         8836                       # number of times the floating registers were written
system.switch_cpus0.num_func_calls              16349                       # number of times a function call or return occured
system.switch_cpus0.num_idle_cycles          0.515326                       # Number of idle cycles
system.switch_cpus0.num_int_alu_accesses      1889696                       # Number of integer alu accesses
system.switch_cpus0.num_int_insts             1889696                       # number of integer instructions
system.switch_cpus0.num_int_register_reads      3667681                       # number of times the integer registers were read
system.switch_cpus0.num_int_register_writes      1482166                       # number of times the integer registers were written
system.switch_cpus0.num_load_insts             247055                       # Number of load instructions
system.switch_cpus0.num_mem_refs               414138                       # number of memory refs
system.switch_cpus0.num_store_insts            167083                       # Number of store instructions
system.switch_cpus0.num_vec_alu_accesses            0                       # Number of vector alu accesses
system.switch_cpus0.num_vec_insts                   0                       # number of vector instructions
system.switch_cpus0.num_vec_register_reads            0                       # number of times the vector registers were read
system.switch_cpus0.num_vec_register_writes            0                       # number of times the vector registers were written
system.switch_cpus0.op_class::No_OpClass         2078      0.11%      0.11% # Class of executed instruction
system.switch_cpus0.op_class::IntAlu          1473266     77.78%     77.89% # Class of executed instruction
system.switch_cpus0.op_class::IntMult            2144      0.11%     78.00% # Class of executed instruction
system.switch_cpus0.op_class::IntDiv                0      0.00%     78.00% # Class of executed instruction
system.switch_cpus0.op_class::FloatAdd           1708      0.09%     78.09% # Class of executed instruction
system.switch_cpus0.op_class::FloatCmp              0      0.00%     78.09% # Class of executed instruction
system.switch_cpus0.op_class::FloatCvt              0      0.00%     78.09% # Class of executed instruction
system.switch_cpus0.op_class::FloatMult             0      0.00%     78.09% # Class of executed instruction
system.switch_cpus0.op_class::FloatMultAcc            0      0.00%     78.09% # Class of executed instruction
system.switch_cpus0.op_class::FloatDiv              0      0.00%     78.09% # Class of executed instruction
system.switch_cpus0.op_class::FloatMisc             0      0.00%     78.09% # Class of executed instruction
system.switch_cpus0.op_class::FloatSqrt             0      0.00%     78.09% # Class of executed instruction
system.switch_cpus0.op_class::SimdAdd               0      0.00%     78.09% # Class of executed instruction
system.switch_cpus0.op_class::SimdAddAcc            0      0.00%     78.09% # Class of executed instruction
system.switch_cpus0.op_class::SimdAlu               0      0.00%     78.09% # Class of executed instruction
system.switch_cpus0.op_class::SimdCmp               0      0.00%     78.09% # Class of executed instruction
system.switch_cpus0.op_class::SimdCvt             148      0.01%     78.10% # Class of executed instruction
system.switch_cpus0.op_class::SimdMisc            666      0.04%     78.14% # Class of executed instruction
system.switch_cpus0.op_class::SimdMult              0      0.00%     78.14% # Class of executed instruction
system.switch_cpus0.op_class::SimdMultAcc            0      0.00%     78.14% # Class of executed instruction
system.switch_cpus0.op_class::SimdShift             0      0.00%     78.14% # Class of executed instruction
system.switch_cpus0.op_class::SimdShiftAcc            0      0.00%     78.14% # Class of executed instruction
system.switch_cpus0.op_class::SimdDiv               0      0.00%     78.14% # Class of executed instruction
system.switch_cpus0.op_class::SimdSqrt              0      0.00%     78.14% # Class of executed instruction
system.switch_cpus0.op_class::SimdFloatAdd            0      0.00%     78.14% # Class of executed instruction
system.switch_cpus0.op_class::SimdFloatAlu            0      0.00%     78.14% # Class of executed instruction
system.switch_cpus0.op_class::SimdFloatCmp            0      0.00%     78.14% # Class of executed instruction
system.switch_cpus0.op_class::SimdFloatCvt            0      0.00%     78.14% # Class of executed instruction
system.switch_cpus0.op_class::SimdFloatDiv            0      0.00%     78.14% # Class of executed instruction
system.switch_cpus0.op_class::SimdFloatMisc            0      0.00%     78.14% # Class of executed instruction
system.switch_cpus0.op_class::SimdFloatMult            0      0.00%     78.14% # Class of executed instruction
system.switch_cpus0.op_class::SimdFloatMultAcc            0      0.00%     78.14% # Class of executed instruction
system.switch_cpus0.op_class::SimdFloatSqrt            0      0.00%     78.14% # Class of executed instruction
system.switch_cpus0.op_class::SimdReduceAdd            0      0.00%     78.14% # Class of executed instruction
system.switch_cpus0.op_class::SimdReduceAlu            0      0.00%     78.14% # Class of executed instruction
system.switch_cpus0.op_class::SimdReduceCmp            0      0.00%     78.14% # Class of executed instruction
system.switch_cpus0.op_class::SimdFloatReduceAdd            0      0.00%     78.14% # Class of executed instruction
system.switch_cpus0.op_class::SimdFloatReduceCmp            0      0.00%     78.14% # Class of executed instruction
system.switch_cpus0.op_class::SimdAes               0      0.00%     78.14% # Class of executed instruction
system.switch_cpus0.op_class::SimdAesMix            0      0.00%     78.14% # Class of executed instruction
system.switch_cpus0.op_class::SimdSha1Hash            0      0.00%     78.14% # Class of executed instruction
system.switch_cpus0.op_class::SimdSha1Hash2            0      0.00%     78.14% # Class of executed instruction
system.switch_cpus0.op_class::SimdSha256Hash            0      0.00%     78.14% # Class of executed instruction
system.switch_cpus0.op_class::SimdSha256Hash2            0      0.00%     78.14% # Class of executed instruction
system.switch_cpus0.op_class::SimdShaSigma2            0      0.00%     78.14% # Class of executed instruction
system.switch_cpus0.op_class::SimdShaSigma3            0      0.00%     78.14% # Class of executed instruction
system.switch_cpus0.op_class::SimdPredAlu            0      0.00%     78.14% # Class of executed instruction
system.switch_cpus0.op_class::MemRead          240667     12.71%     90.84% # Class of executed instruction
system.switch_cpus0.op_class::MemWrite         160843      8.49%     99.33% # Class of executed instruction
system.switch_cpus0.op_class::FloatMemRead         6388      0.34%     99.67% # Class of executed instruction
system.switch_cpus0.op_class::FloatMemWrite         6240      0.33%    100.00% # Class of executed instruction
system.switch_cpus0.op_class::IprAccess             0      0.00%    100.00% # Class of executed instruction
system.switch_cpus0.op_class::InstPrefetch            0      0.00%    100.00% # Class of executed instruction
system.switch_cpus0.op_class::total           1894148                       # Class of executed instruction
system.switch_cpus1.Branches                   217910                       # Number of branches fetched
system.switch_cpus1.committedInsts             969265                       # Number of instructions committed
system.switch_cpus1.committedOps              1961927                       # Number of ops (including micro ops) committed
system.switch_cpus1.dtb.rdAccesses             282983                       # TLB accesses on read requests
system.switch_cpus1.dtb.rdMisses                   40                       # TLB misses on read requests
system.switch_cpus1.dtb.wrAccesses             206698                       # TLB accesses on write requests
system.switch_cpus1.dtb.wrMisses                    3                       # TLB misses on write requests
system.switch_cpus1.idle_fraction            0.000000                       # Percentage of idle cycles
system.switch_cpus1.itb.rdAccesses                  0                       # TLB accesses on read requests
system.switch_cpus1.itb.rdMisses                    0                       # TLB misses on read requests
system.switch_cpus1.itb.wrAccesses            1228822                       # TLB accesses on write requests
system.switch_cpus1.itb.wrMisses                   27                       # TLB misses on write requests
system.switch_cpus1.not_idle_fraction        1.000000                       # Percentage of non-idle cycles
system.switch_cpus1.numCycles                 5576251                       # number of cpu cycles simulated
system.switch_cpus1.numWorkItemsCompleted            0                       # number of work items this cpu completed
system.switch_cpus1.numWorkItemsStarted             0                       # number of work items this cpu started
system.switch_cpus1.num_busy_cycles      5576250.484674                       # Number of busy cycles
system.switch_cpus1.num_cc_register_reads       812694                       # number of times the CC registers were read
system.switch_cpus1.num_cc_register_writes       435665                       # number of times the CC registers were written
system.switch_cpus1.num_conditional_control_insts        99296                       # number of instructions that are conditional controls
system.switch_cpus1.num_fp_alu_accesses         15929                       # Number of float alu accesses
system.switch_cpus1.num_fp_insts                15929                       # number of float instructions
system.switch_cpus1.num_fp_register_reads        26741                       # number of times the floating registers were read
system.switch_cpus1.num_fp_register_writes        14011                       # number of times the floating registers were written
system.switch_cpus1.num_func_calls             102787                       # number of times a function call or return occured
system.switch_cpus1.num_idle_cycles          0.515326                       # Number of idle cycles
system.switch_cpus1.num_int_alu_accesses      1941777                       # Number of integer alu accesses
system.switch_cpus1.num_int_insts             1941777                       # number of integer instructions
system.switch_cpus1.num_int_register_reads      4116304                       # number of times the integer registers were read
system.switch_cpus1.num_int_register_writes      1523247                       # number of times the integer registers were written
system.switch_cpus1.num_load_insts             282981                       # Number of load instructions
system.switch_cpus1.num_mem_refs               489677                       # number of memory refs
system.switch_cpus1.num_store_insts            206696                       # Number of store instructions
system.switch_cpus1.num_vec_alu_accesses            0                       # Number of vector alu accesses
system.switch_cpus1.num_vec_insts                   0                       # number of vector instructions
system.switch_cpus1.num_vec_register_reads            0                       # number of times the vector registers were read
system.switch_cpus1.num_vec_register_writes            0                       # number of times the vector registers were written
system.switch_cpus1.op_class::No_OpClass         6548      0.33%      0.33% # Class of executed instruction
system.switch_cpus1.op_class::IntAlu          1451101     73.96%     74.30% # Class of executed instruction
system.switch_cpus1.op_class::IntMult             909      0.05%     74.34% # Class of executed instruction
system.switch_cpus1.op_class::IntDiv             2226      0.11%     74.46% # Class of executed instruction
system.switch_cpus1.op_class::FloatAdd            635      0.03%     74.49% # Class of executed instruction
system.switch_cpus1.op_class::FloatCmp              0      0.00%     74.49% # Class of executed instruction
system.switch_cpus1.op_class::FloatCvt              0      0.00%     74.49% # Class of executed instruction
system.switch_cpus1.op_class::FloatMult             0      0.00%     74.49% # Class of executed instruction
system.switch_cpus1.op_class::FloatMultAcc            0      0.00%     74.49% # Class of executed instruction
system.switch_cpus1.op_class::FloatDiv              0      0.00%     74.49% # Class of executed instruction
system.switch_cpus1.op_class::FloatMisc             0      0.00%     74.49% # Class of executed instruction
system.switch_cpus1.op_class::FloatSqrt             0      0.00%     74.49% # Class of executed instruction
system.switch_cpus1.op_class::SimdAdd               0      0.00%     74.49% # Class of executed instruction
system.switch_cpus1.op_class::SimdAddAcc            0      0.00%     74.49% # Class of executed instruction
system.switch_cpus1.op_class::SimdAlu            2548      0.13%     74.62% # Class of executed instruction
system.switch_cpus1.op_class::SimdCmp               0      0.00%     74.62% # Class of executed instruction
system.switch_cpus1.op_class::SimdCvt            2554      0.13%     74.75% # Class of executed instruction
system.switch_cpus1.op_class::SimdMisc           5729      0.29%     75.04% # Class of executed instruction
system.switch_cpus1.op_class::SimdMult              0      0.00%     75.04% # Class of executed instruction
system.switch_cpus1.op_class::SimdMultAcc            0      0.00%     75.04% # Class of executed instruction
system.switch_cpus1.op_class::SimdShift             0      0.00%     75.04% # Class of executed instruction
system.switch_cpus1.op_class::SimdShiftAcc            0      0.00%     75.04% # Class of executed instruction
system.switch_cpus1.op_class::SimdDiv               0      0.00%     75.04% # Class of executed instruction
system.switch_cpus1.op_class::SimdSqrt              0      0.00%     75.04% # Class of executed instruction
system.switch_cpus1.op_class::SimdFloatAdd            0      0.00%     75.04% # Class of executed instruction
system.switch_cpus1.op_class::SimdFloatAlu            0      0.00%     75.04% # Class of executed instruction
system.switch_cpus1.op_class::SimdFloatCmp            0      0.00%     75.04% # Class of executed instruction
system.switch_cpus1.op_class::SimdFloatCvt            0      0.00%     75.04% # Class of executed instruction
system.switch_cpus1.op_class::SimdFloatDiv            0      0.00%     75.04% # Class of executed instruction
system.switch_cpus1.op_class::SimdFloatMisc            0      0.00%     75.04% # Class of executed instruction
system.switch_cpus1.op_class::SimdFloatMult            0      0.00%     75.04% # Class of executed instruction
system.switch_cpus1.op_class::SimdFloatMultAcc            0      0.00%     75.04% # Class of executed instruction
system.switch_cpus1.op_class::SimdFloatSqrt            0      0.00%     75.04% # Class of executed instruction
system.switch_cpus1.op_class::SimdReduceAdd            0      0.00%     75.04% # Class of executed instruction
system.switch_cpus1.op_class::SimdReduceAlu            0      0.00%     75.04% # Class of executed instruction
system.switch_cpus1.op_class::SimdReduceCmp            0      0.00%     75.04% # Class of executed instruction
system.switch_cpus1.op_class::SimdFloatReduceAdd            0      0.00%     75.04% # Class of executed instruction
system.switch_cpus1.op_class::SimdFloatReduceCmp            0      0.00%     75.04% # Class of executed instruction
system.switch_cpus1.op_class::SimdAes               0      0.00%     75.04% # Class of executed instruction
system.switch_cpus1.op_class::SimdAesMix            0      0.00%     75.04% # Class of executed instruction
system.switch_cpus1.op_class::SimdSha1Hash            0      0.00%     75.04% # Class of executed instruction
system.switch_cpus1.op_class::SimdSha1Hash2            0      0.00%     75.04% # Class of executed instruction
system.switch_cpus1.op_class::SimdSha256Hash            0      0.00%     75.04% # Class of executed instruction
system.switch_cpus1.op_class::SimdSha256Hash2            0      0.00%     75.04% # Class of executed instruction
system.switch_cpus1.op_class::SimdShaSigma2            0      0.00%     75.04% # Class of executed instruction
system.switch_cpus1.op_class::SimdShaSigma3            0      0.00%     75.04% # Class of executed instruction
system.switch_cpus1.op_class::SimdPredAlu            0      0.00%     75.04% # Class of executed instruction
system.switch_cpus1.op_class::MemRead          281057     14.33%     89.37% # Class of executed instruction
system.switch_cpus1.op_class::MemWrite         206062     10.50%     99.87% # Class of executed instruction
system.switch_cpus1.op_class::FloatMemRead         1924      0.10%     99.97% # Class of executed instruction
system.switch_cpus1.op_class::FloatMemWrite          634      0.03%    100.00% # Class of executed instruction
system.switch_cpus1.op_class::IprAccess             0      0.00%    100.00% # Class of executed instruction
system.switch_cpus1.op_class::InstPrefetch            0      0.00%    100.00% # Class of executed instruction
system.switch_cpus1.op_class::total           1961927                       # Class of executed instruction
system.switch_cpus_10.branchPred.BTBCorrect            0                       # Number of correct BTB predictions (this stat may not work properly.
system.switch_cpus_10.branchPred.BTBHitPct     0.000000                       # BTB Hit Percentage
system.switch_cpus_10.branchPred.BTBHits            0                       # Number of BTB hits
system.switch_cpus_10.branchPred.BTBLookups        32458                       # Number of BTB lookups
system.switch_cpus_10.branchPred.RASInCorrect            9                       # Number of incorrect RAS predictions.
system.switch_cpus_10.branchPred.condIncorrect         2045                       # Number of conditional branches incorrect
system.switch_cpus_10.branchPred.condPredicted        32671                       # Number of conditional branches predicted
system.switch_cpus_10.branchPred.indirectHits        13229                       # Number of indirect target hits.
system.switch_cpus_10.branchPred.indirectLookups        32458                       # Number of indirect predictor lookups.
system.switch_cpus_10.branchPred.indirectMisses        19229                       # Number of indirect misses.
system.switch_cpus_10.branchPred.lookups        35957                       # Number of BP lookups
system.switch_cpus_10.branchPred.usedRAS         1313                       # Number of times the RAS was used to get a target.
system.switch_cpus_10.branchPredindirectMispredicted         1513                       # Number of mispredicted indirect branches.
system.switch_cpus_10.cc_regfile_reads         137499                       # number of cc regfile reads
system.switch_cpus_10.cc_regfile_writes         70603                       # number of cc regfile writes
system.switch_cpus_10.commit.amos                   0                       # Number of atomic instructions committed
system.switch_cpus_10.commit.branchMispredicts         2045                       # The number of times a branch was mispredicted
system.switch_cpus_10.commit.branches           26861                       # Number of branches committed
system.switch_cpus_10.commit.bw_lim_events        10691                       # number cycles where commit BW limit reached
system.switch_cpus_10.commit.commitNonSpecStalls           53                       # The number of times commit has been forced to stall to communicate backwards
system.switch_cpus_10.commit.commitSquashedInsts        45289                       # The number of squashed insts skipped by commit
system.switch_cpus_10.commit.committedInsts       114071                       # Number of instructions committed
system.switch_cpus_10.commit.committedOps       217445                       # Number of ops (including micro ops) committed
system.switch_cpus_10.commit.committed_per_cycle::samples       152074                       # Number of insts commited each cycle
system.switch_cpus_10.commit.committed_per_cycle::mean     1.429863                       # Number of insts commited each cycle
system.switch_cpus_10.commit.committed_per_cycle::stdev     2.381690                       # Number of insts commited each cycle
system.switch_cpus_10.commit.committed_per_cycle::underflows            0      0.00%      0.00% # Number of insts commited each cycle
system.switch_cpus_10.commit.committed_per_cycle::0        92161     60.60%     60.60% # Number of insts commited each cycle
system.switch_cpus_10.commit.committed_per_cycle::1        16731     11.00%     71.60% # Number of insts commited each cycle
system.switch_cpus_10.commit.committed_per_cycle::2         7462      4.91%     76.51% # Number of insts commited each cycle
system.switch_cpus_10.commit.committed_per_cycle::3        13085      8.60%     85.12% # Number of insts commited each cycle
system.switch_cpus_10.commit.committed_per_cycle::4         4276      2.81%     87.93% # Number of insts commited each cycle
system.switch_cpus_10.commit.committed_per_cycle::5         3938      2.59%     90.52% # Number of insts commited each cycle
system.switch_cpus_10.commit.committed_per_cycle::6         1897      1.25%     91.76% # Number of insts commited each cycle
system.switch_cpus_10.commit.committed_per_cycle::7         1833      1.21%     92.97% # Number of insts commited each cycle
system.switch_cpus_10.commit.committed_per_cycle::8        10691      7.03%    100.00% # Number of insts commited each cycle
system.switch_cpus_10.commit.committed_per_cycle::overflows            0      0.00%    100.00% # Number of insts commited each cycle
system.switch_cpus_10.commit.committed_per_cycle::min_value            0                       # Number of insts commited each cycle
system.switch_cpus_10.commit.committed_per_cycle::max_value            8                       # Number of insts commited each cycle
system.switch_cpus_10.commit.committed_per_cycle::total       152074                       # Number of insts commited each cycle
system.switch_cpus_10.commit.fp_insts            2474                       # Number of committed floating point instructions.
system.switch_cpus_10.commit.function_calls         1004                       # Number of function calls committed.
system.switch_cpus_10.commit.int_insts         216562                       # Number of committed integer instructions.
system.switch_cpus_10.commit.loads              28881                       # Number of loads committed
system.switch_cpus_10.commit.membars                0                       # Number of memory barriers committed
system.switch_cpus_10.commit.op_class_0::No_OpClass          328      0.15%      0.15% # Class of committed instruction
system.switch_cpus_10.commit.op_class_0::IntAlu       168369     77.43%     77.58% # Class of committed instruction
system.switch_cpus_10.commit.op_class_0::IntMult          224      0.10%     77.68% # Class of committed instruction
system.switch_cpus_10.commit.op_class_0::IntDiv           77      0.04%     77.72% # Class of committed instruction
system.switch_cpus_10.commit.op_class_0::FloatAdd          228      0.10%     77.82% # Class of committed instruction
system.switch_cpus_10.commit.op_class_0::FloatCmp            0      0.00%     77.82% # Class of committed instruction
system.switch_cpus_10.commit.op_class_0::FloatCvt           80      0.04%     77.86% # Class of committed instruction
system.switch_cpus_10.commit.op_class_0::FloatMult            0      0.00%     77.86% # Class of committed instruction
system.switch_cpus_10.commit.op_class_0::FloatMultAcc            0      0.00%     77.86% # Class of committed instruction
system.switch_cpus_10.commit.op_class_0::FloatDiv            0      0.00%     77.86% # Class of committed instruction
system.switch_cpus_10.commit.op_class_0::FloatMisc            0      0.00%     77.86% # Class of committed instruction
system.switch_cpus_10.commit.op_class_0::FloatSqrt            0      0.00%     77.86% # Class of committed instruction
system.switch_cpus_10.commit.op_class_0::SimdAdd           28      0.01%     77.87% # Class of committed instruction
system.switch_cpus_10.commit.op_class_0::SimdAddAcc            0      0.00%     77.87% # Class of committed instruction
system.switch_cpus_10.commit.op_class_0::SimdAlu           67      0.03%     77.91% # Class of committed instruction
system.switch_cpus_10.commit.op_class_0::SimdCmp            0      0.00%     77.91% # Class of committed instruction
system.switch_cpus_10.commit.op_class_0::SimdCvt          104      0.05%     77.95% # Class of committed instruction
system.switch_cpus_10.commit.op_class_0::SimdMisc          178      0.08%     78.03% # Class of committed instruction
system.switch_cpus_10.commit.op_class_0::SimdMult            0      0.00%     78.03% # Class of committed instruction
system.switch_cpus_10.commit.op_class_0::SimdMultAcc            0      0.00%     78.03% # Class of committed instruction
system.switch_cpus_10.commit.op_class_0::SimdShift           27      0.01%     78.05% # Class of committed instruction
system.switch_cpus_10.commit.op_class_0::SimdShiftAcc            0      0.00%     78.05% # Class of committed instruction
system.switch_cpus_10.commit.op_class_0::SimdDiv            0      0.00%     78.05% # Class of committed instruction
system.switch_cpus_10.commit.op_class_0::SimdSqrt            0      0.00%     78.05% # Class of committed instruction
system.switch_cpus_10.commit.op_class_0::SimdFloatAdd            0      0.00%     78.05% # Class of committed instruction
system.switch_cpus_10.commit.op_class_0::SimdFloatAlu            0      0.00%     78.05% # Class of committed instruction
system.switch_cpus_10.commit.op_class_0::SimdFloatCmp            0      0.00%     78.05% # Class of committed instruction
system.switch_cpus_10.commit.op_class_0::SimdFloatCvt            0      0.00%     78.05% # Class of committed instruction
system.switch_cpus_10.commit.op_class_0::SimdFloatDiv            0      0.00%     78.05% # Class of committed instruction
system.switch_cpus_10.commit.op_class_0::SimdFloatMisc            0      0.00%     78.05% # Class of committed instruction
system.switch_cpus_10.commit.op_class_0::SimdFloatMult            0      0.00%     78.05% # Class of committed instruction
system.switch_cpus_10.commit.op_class_0::SimdFloatMultAcc            0      0.00%     78.05% # Class of committed instruction
system.switch_cpus_10.commit.op_class_0::SimdFloatSqrt            0      0.00%     78.05% # Class of committed instruction
system.switch_cpus_10.commit.op_class_0::SimdReduceAdd            0      0.00%     78.05% # Class of committed instruction
system.switch_cpus_10.commit.op_class_0::SimdReduceAlu            0      0.00%     78.05% # Class of committed instruction
system.switch_cpus_10.commit.op_class_0::SimdReduceCmp            0      0.00%     78.05% # Class of committed instruction
system.switch_cpus_10.commit.op_class_0::SimdFloatReduceAdd            0      0.00%     78.05% # Class of committed instruction
system.switch_cpus_10.commit.op_class_0::SimdFloatReduceCmp            0      0.00%     78.05% # Class of committed instruction
system.switch_cpus_10.commit.op_class_0::SimdAes            0      0.00%     78.05% # Class of committed instruction
system.switch_cpus_10.commit.op_class_0::SimdAesMix            0      0.00%     78.05% # Class of committed instruction
system.switch_cpus_10.commit.op_class_0::SimdSha1Hash            0      0.00%     78.05% # Class of committed instruction
system.switch_cpus_10.commit.op_class_0::SimdSha1Hash2            0      0.00%     78.05% # Class of committed instruction
system.switch_cpus_10.commit.op_class_0::SimdSha256Hash            0      0.00%     78.05% # Class of committed instruction
system.switch_cpus_10.commit.op_class_0::SimdSha256Hash2            0      0.00%     78.05% # Class of committed instruction
system.switch_cpus_10.commit.op_class_0::SimdShaSigma2            0      0.00%     78.05% # Class of committed instruction
system.switch_cpus_10.commit.op_class_0::SimdShaSigma3            0      0.00%     78.05% # Class of committed instruction
system.switch_cpus_10.commit.op_class_0::SimdPredAlu            0      0.00%     78.05% # Class of committed instruction
system.switch_cpus_10.commit.op_class_0::MemRead        27975     12.87%     90.91% # Class of committed instruction
system.switch_cpus_10.commit.op_class_0::MemWrite        18026      8.29%     99.20% # Class of committed instruction
system.switch_cpus_10.commit.op_class_0::FloatMemRead          906      0.42%     99.62% # Class of committed instruction
system.switch_cpus_10.commit.op_class_0::FloatMemWrite          828      0.38%    100.00% # Class of committed instruction
system.switch_cpus_10.commit.op_class_0::IprAccess            0      0.00%    100.00% # Class of committed instruction
system.switch_cpus_10.commit.op_class_0::InstPrefetch            0      0.00%    100.00% # Class of committed instruction
system.switch_cpus_10.commit.op_class_0::total       217445                       # Class of committed instruction
system.switch_cpus_10.commit.refs               47735                       # Number of memory references committed
system.switch_cpus_10.commit.swp_count              0                       # Number of s/w prefetches committed
system.switch_cpus_10.commit.vec_insts              0                       # Number of committed Vector instructions.
system.switch_cpus_10.committedInsts           114071                       # Number of Instructions Simulated
system.switch_cpus_10.committedOps             217445                       # Number of Ops (including micro ops) Simulated
system.switch_cpus_10.cpi                    2.173471                       # CPI: Cycles Per Instruction
system.switch_cpus_10.cpi_total              2.173471                       # CPI: Total CPI of All Threads
system.switch_cpus_10.decode.BlockedCycles        50120                       # Number of cycles decode is blocked
system.switch_cpus_10.decode.DecodedInsts       283440                       # Number of instructions handled by decode
system.switch_cpus_10.decode.IdleCycles         62472                       # Number of cycles decode is idle
system.switch_cpus_10.decode.RunCycles          44525                       # Number of cycles decode is running
system.switch_cpus_10.decode.SquashCycles         2077                       # Number of cycles decode is squashing
system.switch_cpus_10.decode.UnblockCycles          463                       # Number of cycles decode is unblocking
system.switch_cpus_10.dtb.rdAccesses            33215                       # TLB accesses on read requests
system.switch_cpus_10.dtb.rdMisses                 93                       # TLB misses on read requests
system.switch_cpus_10.dtb.wrAccesses            20721                       # TLB accesses on write requests
system.switch_cpus_10.dtb.wrMisses                  4                       # TLB misses on write requests
system.switch_cpus_10.fetch.Branches            35957                       # Number of branches that fetch encountered
system.switch_cpus_10.fetch.CacheLines          23642                       # Number of cache lines fetched
system.switch_cpus_10.fetch.Cycles              90624                       # Number of cycles fetch has run and was not squashing or blocked
system.switch_cpus_10.fetch.IcacheSquashes         1034                       # Number of outstanding Icache misses that were squashed
system.switch_cpus_10.fetch.IcacheWaitRetryStallCycles          565                       # Number of stall cycles due to full MSHR
system.switch_cpus_10.fetch.Insts              152485                       # Number of instructions fetch has processed
system.switch_cpus_10.fetch.MiscStallCycles         1191                       # Number of cycles fetch has spent waiting on interrupts, or bad addresses, or out of MSHRs
system.switch_cpus_10.fetch.PendingQuiesceStallCycles           43                       # Number of stall cycles due to pending quiesce instructions
system.switch_cpus_10.fetch.SquashCycles         4154                       # Number of cycles fetch has spent squashing
system.switch_cpus_10.fetch.branchRate       0.145029                       # Number of branch fetches per cycle
system.switch_cpus_10.fetch.icacheStallCycles        65167                       # Number of cycles fetch is stalled on an Icache miss
system.switch_cpus_10.fetch.predictedBranches        14542                       # Number of branches that fetch has predicted taken
system.switch_cpus_10.fetch.rate             0.615032                       # Number of inst fetches per cycle
system.switch_cpus_10.fetch.rateDist::samples       159667                       # Number of instructions fetched each cycle (Total)
system.switch_cpus_10.fetch.rateDist::mean     1.840606                       # Number of instructions fetched each cycle (Total)
system.switch_cpus_10.fetch.rateDist::stdev     3.111093                       # Number of instructions fetched each cycle (Total)
system.switch_cpus_10.fetch.rateDist::underflows            0      0.00%      0.00% # Number of instructions fetched each cycle (Total)
system.switch_cpus_10.fetch.rateDist::0        112445     70.42%     70.42% # Number of instructions fetched each cycle (Total)
system.switch_cpus_10.fetch.rateDist::1          2353      1.47%     71.90% # Number of instructions fetched each cycle (Total)
system.switch_cpus_10.fetch.rateDist::2          2734      1.71%     73.61% # Number of instructions fetched each cycle (Total)
system.switch_cpus_10.fetch.rateDist::3          3552      2.22%     75.84% # Number of instructions fetched each cycle (Total)
system.switch_cpus_10.fetch.rateDist::4          3695      2.31%     78.15% # Number of instructions fetched each cycle (Total)
system.switch_cpus_10.fetch.rateDist::5          3401      2.13%     80.28% # Number of instructions fetched each cycle (Total)
system.switch_cpus_10.fetch.rateDist::6          2928      1.83%     82.11% # Number of instructions fetched each cycle (Total)
system.switch_cpus_10.fetch.rateDist::7          2418      1.51%     83.63% # Number of instructions fetched each cycle (Total)
system.switch_cpus_10.fetch.rateDist::8         26141     16.37%    100.00% # Number of instructions fetched each cycle (Total)
system.switch_cpus_10.fetch.rateDist::overflows            0      0.00%    100.00% # Number of instructions fetched each cycle (Total)
system.switch_cpus_10.fetch.rateDist::min_value            0                       # Number of instructions fetched each cycle (Total)
system.switch_cpus_10.fetch.rateDist::max_value            8                       # Number of instructions fetched each cycle (Total)
system.switch_cpus_10.fetch.rateDist::total       159667                       # Number of instructions fetched each cycle (Total)
system.switch_cpus_10.fp_regfile_reads           2503                       # number of floating regfile reads
system.switch_cpus_10.fp_regfile_writes          1910                       # number of floating regfile writes
system.switch_cpus_10.idleCycles                88263                       # Total number of cycles that the CPU has spent unscheduled due to idling
system.switch_cpus_10.iew.branchMispredicts         2445                       # Number of branch mispredicts detected at execute
system.switch_cpus_10.iew.exec_branches         29291                       # Number of branches executed
system.switch_cpus_10.iew.exec_nop                  0                       # number of nop insts executed
system.switch_cpus_10.iew.exec_rate          0.994724                       # Inst execution rate
system.switch_cpus_10.iew.exec_refs             54024                       # number of memory reference insts executed
system.switch_cpus_10.iew.exec_stores           20720                       # Number of stores executed
system.switch_cpus_10.iew.exec_swp                  0                       # number of swp insts executed
system.switch_cpus_10.iew.iewBlockCycles        21905                       # Number of cycles IEW is blocking
system.switch_cpus_10.iew.iewDispLoadInsts        35142                       # Number of dispatched load instructions
system.switch_cpus_10.iew.iewDispNonSpecInsts          180                       # Number of dispatched non-speculative instructions
system.switch_cpus_10.iew.iewDispSquashedInsts         1185                       # Number of squashed instructions skipped by dispatch
system.switch_cpus_10.iew.iewDispStoreInsts        22489                       # Number of dispatched store instructions
system.switch_cpus_10.iew.iewDispatchedInsts       262694                       # Number of instructions dispatched to IQ
system.switch_cpus_10.iew.iewExecLoadInsts        33304                       # Number of load instructions executed
system.switch_cpus_10.iew.iewExecSquashedInsts         3687                       # Number of squashed instructions skipped in execute
system.switch_cpus_10.iew.iewExecutedInsts       246622                       # Number of executed instructions
system.switch_cpus_10.iew.iewIQFullEvents           86                       # Number of times the IQ has become full, causing a stall
system.switch_cpus_10.iew.iewIdleCycles             0                       # Number of cycles IEW is idle
system.switch_cpus_10.iew.iewLSQFullEvents         1098                       # Number of times the LSQ has become full, causing a stall
system.switch_cpus_10.iew.iewSquashCycles         2077                       # Number of cycles IEW is squashing
system.switch_cpus_10.iew.iewUnblockCycles         1211                       # Number of cycles IEW is unblocking
system.switch_cpus_10.iew.lsq.thread0.blockedLoads            0                       # Number of blocked loads due to partial load-store forwarding
system.switch_cpus_10.iew.lsq.thread0.cacheBlocked           24                       # Number of times an access to memory failed due to the cache being blocked
system.switch_cpus_10.iew.lsq.thread0.forwLoads         4854                       # Number of loads that had data forwarded from stores
system.switch_cpus_10.iew.lsq.thread0.ignoredResponses           29                       # Number of memory responses ignored because the instruction is squashed
system.switch_cpus_10.iew.lsq.thread0.invAddrLoads            0                       # Number of loads ignored due to an invalid address
system.switch_cpus_10.iew.lsq.thread0.invAddrSwpfs            0                       # Number of software prefetches ignored due to an invalid address
system.switch_cpus_10.iew.lsq.thread0.memOrderViolation           36                       # Number of memory ordering violations
system.switch_cpus_10.iew.lsq.thread0.rescheduledLoads          153                       # Number of loads that were rescheduled
system.switch_cpus_10.iew.lsq.thread0.squashedLoads         6261                       # Number of loads squashed
system.switch_cpus_10.iew.lsq.thread0.squashedStores         3635                       # Number of stores squashed
system.switch_cpus_10.iew.memOrderViolationEvents           36                       # Number of memory order violations
system.switch_cpus_10.iew.predictedNotTakenIncorrect         2217                       # Number of branches that were predicted not taken incorrectly
system.switch_cpus_10.iew.predictedTakenIncorrect          228                       # Number of branches that were predicted taken incorrectly
system.switch_cpus_10.iew.wb_consumers         253805                       # num instructions consuming a value
system.switch_cpus_10.iew.wb_count             244111                       # cumulative count of insts written-back
system.switch_cpus_10.iew.wb_fanout          0.668163                       # average fanout of values written-back
system.switch_cpus_10.iew.wb_producers         169583                       # num instructions producing a value
system.switch_cpus_10.iew.wb_rate            0.984596                       # insts written-back per cycle
system.switch_cpus_10.iew.wb_sent              244570                       # cumulative count of insts sent to commit
system.switch_cpus_10.int_regfile_reads        352764                       # number of integer regfile reads
system.switch_cpus_10.int_regfile_writes       192057                       # number of integer regfile writes
system.switch_cpus_10.ipc                    0.460094                       # IPC: Instructions Per Cycle
system.switch_cpus_10.ipc_total              0.460094                       # IPC: Total IPC of All Threads
system.switch_cpus_10.iq.FU_type_0::No_OpClass          990      0.40%      0.40% # Type of FU issued
system.switch_cpus_10.iq.FU_type_0::IntAlu       192961     77.09%     77.48% # Type of FU issued
system.switch_cpus_10.iq.FU_type_0::IntMult          260      0.10%     77.59% # Type of FU issued
system.switch_cpus_10.iq.FU_type_0::IntDiv           80      0.03%     77.62% # Type of FU issued
system.switch_cpus_10.iq.FU_type_0::FloatAdd          286      0.11%     77.73% # Type of FU issued
system.switch_cpus_10.iq.FU_type_0::FloatCmp            0      0.00%     77.73% # Type of FU issued
system.switch_cpus_10.iq.FU_type_0::FloatCvt          106      0.04%     77.78% # Type of FU issued
system.switch_cpus_10.iq.FU_type_0::FloatMult            0      0.00%     77.78% # Type of FU issued
system.switch_cpus_10.iq.FU_type_0::FloatMultAcc            0      0.00%     77.78% # Type of FU issued
system.switch_cpus_10.iq.FU_type_0::FloatDiv            0      0.00%     77.78% # Type of FU issued
system.switch_cpus_10.iq.FU_type_0::FloatMisc            0      0.00%     77.78% # Type of FU issued
system.switch_cpus_10.iq.FU_type_0::FloatSqrt            0      0.00%     77.78% # Type of FU issued
system.switch_cpus_10.iq.FU_type_0::SimdAdd           50      0.02%     77.80% # Type of FU issued
system.switch_cpus_10.iq.FU_type_0::SimdAddAcc            0      0.00%     77.80% # Type of FU issued
system.switch_cpus_10.iq.FU_type_0::SimdAlu          149      0.06%     77.86% # Type of FU issued
system.switch_cpus_10.iq.FU_type_0::SimdCmp            0      0.00%     77.86% # Type of FU issued
system.switch_cpus_10.iq.FU_type_0::SimdCvt          162      0.06%     77.92% # Type of FU issued
system.switch_cpus_10.iq.FU_type_0::SimdMisc          203      0.08%     78.00% # Type of FU issued
system.switch_cpus_10.iq.FU_type_0::SimdMult            0      0.00%     78.00% # Type of FU issued
system.switch_cpus_10.iq.FU_type_0::SimdMultAcc            0      0.00%     78.00% # Type of FU issued
system.switch_cpus_10.iq.FU_type_0::SimdShift           60      0.02%     78.03% # Type of FU issued
system.switch_cpus_10.iq.FU_type_0::SimdShiftAcc            0      0.00%     78.03% # Type of FU issued
system.switch_cpus_10.iq.FU_type_0::SimdDiv            0      0.00%     78.03% # Type of FU issued
system.switch_cpus_10.iq.FU_type_0::SimdSqrt            0      0.00%     78.03% # Type of FU issued
system.switch_cpus_10.iq.FU_type_0::SimdFloatAdd            0      0.00%     78.03% # Type of FU issued
system.switch_cpus_10.iq.FU_type_0::SimdFloatAlu            0      0.00%     78.03% # Type of FU issued
system.switch_cpus_10.iq.FU_type_0::SimdFloatCmp            0      0.00%     78.03% # Type of FU issued
system.switch_cpus_10.iq.FU_type_0::SimdFloatCvt            0      0.00%     78.03% # Type of FU issued
system.switch_cpus_10.iq.FU_type_0::SimdFloatDiv            0      0.00%     78.03% # Type of FU issued
system.switch_cpus_10.iq.FU_type_0::SimdFloatMisc            0      0.00%     78.03% # Type of FU issued
system.switch_cpus_10.iq.FU_type_0::SimdFloatMult            0      0.00%     78.03% # Type of FU issued
system.switch_cpus_10.iq.FU_type_0::SimdFloatMultAcc            0      0.00%     78.03% # Type of FU issued
system.switch_cpus_10.iq.FU_type_0::SimdFloatSqrt            0      0.00%     78.03% # Type of FU issued
system.switch_cpus_10.iq.FU_type_0::SimdReduceAdd            0      0.00%     78.03% # Type of FU issued
system.switch_cpus_10.iq.FU_type_0::SimdReduceAlu            0      0.00%     78.03% # Type of FU issued
system.switch_cpus_10.iq.FU_type_0::SimdReduceCmp            0      0.00%     78.03% # Type of FU issued
system.switch_cpus_10.iq.FU_type_0::SimdFloatReduceAdd            0      0.00%     78.03% # Type of FU issued
system.switch_cpus_10.iq.FU_type_0::SimdFloatReduceCmp            0      0.00%     78.03% # Type of FU issued
system.switch_cpus_10.iq.FU_type_0::SimdAes            0      0.00%     78.03% # Type of FU issued
system.switch_cpus_10.iq.FU_type_0::SimdAesMix            0      0.00%     78.03% # Type of FU issued
system.switch_cpus_10.iq.FU_type_0::SimdSha1Hash            0      0.00%     78.03% # Type of FU issued
system.switch_cpus_10.iq.FU_type_0::SimdSha1Hash2            0      0.00%     78.03% # Type of FU issued
system.switch_cpus_10.iq.FU_type_0::SimdSha256Hash            0      0.00%     78.03% # Type of FU issued
system.switch_cpus_10.iq.FU_type_0::SimdSha256Hash2            0      0.00%     78.03% # Type of FU issued
system.switch_cpus_10.iq.FU_type_0::SimdShaSigma2            0      0.00%     78.03% # Type of FU issued
system.switch_cpus_10.iq.FU_type_0::SimdShaSigma3            0      0.00%     78.03% # Type of FU issued
system.switch_cpus_10.iq.FU_type_0::SimdPredAlu            0      0.00%     78.03% # Type of FU issued
system.switch_cpus_10.iq.FU_type_0::MemRead        32517     12.99%     91.02% # Type of FU issued
system.switch_cpus_10.iq.FU_type_0::MemWrite        20087      8.02%     99.04% # Type of FU issued
system.switch_cpus_10.iq.FU_type_0::FloatMemRead         1344      0.54%     99.58% # Type of FU issued
system.switch_cpus_10.iq.FU_type_0::FloatMemWrite         1054      0.42%    100.00% # Type of FU issued
system.switch_cpus_10.iq.FU_type_0::IprAccess            0      0.00%    100.00% # Type of FU issued
system.switch_cpus_10.iq.FU_type_0::InstPrefetch            0      0.00%    100.00% # Type of FU issued
system.switch_cpus_10.iq.FU_type_0::total       250309                       # Type of FU issued
system.switch_cpus_10.iq.fp_alu_accesses         3547                       # Number of floating point alu accesses
system.switch_cpus_10.iq.fp_inst_queue_reads         7053                       # Number of floating instruction queue reads
system.switch_cpus_10.iq.fp_inst_queue_wakeup_accesses         3026                       # Number of floating instruction queue wakeup accesses
system.switch_cpus_10.iq.fp_inst_queue_writes         5046                       # Number of floating instruction queue writes
system.switch_cpus_10.iq.fu_busy_cnt             2994                       # FU busy when requested
system.switch_cpus_10.iq.fu_busy_rate        0.011961                       # FU busy rate (busy events/executed inst)
system.switch_cpus_10.iq.fu_full::No_OpClass            0      0.00%      0.00% # attempts to use FU when none available
system.switch_cpus_10.iq.fu_full::IntAlu         2600     86.84%     86.84% # attempts to use FU when none available
system.switch_cpus_10.iq.fu_full::IntMult            0      0.00%     86.84% # attempts to use FU when none available
system.switch_cpus_10.iq.fu_full::IntDiv            0      0.00%     86.84% # attempts to use FU when none available
system.switch_cpus_10.iq.fu_full::FloatAdd            0      0.00%     86.84% # attempts to use FU when none available
system.switch_cpus_10.iq.fu_full::FloatCmp            0      0.00%     86.84% # attempts to use FU when none available
system.switch_cpus_10.iq.fu_full::FloatCvt            0      0.00%     86.84% # attempts to use FU when none available
system.switch_cpus_10.iq.fu_full::FloatMult            0      0.00%     86.84% # attempts to use FU when none available
system.switch_cpus_10.iq.fu_full::FloatMultAcc            0      0.00%     86.84% # attempts to use FU when none available
system.switch_cpus_10.iq.fu_full::FloatDiv            0      0.00%     86.84% # attempts to use FU when none available
system.switch_cpus_10.iq.fu_full::FloatMisc            0      0.00%     86.84% # attempts to use FU when none available
system.switch_cpus_10.iq.fu_full::FloatSqrt            0      0.00%     86.84% # attempts to use FU when none available
system.switch_cpus_10.iq.fu_full::SimdAdd            0      0.00%     86.84% # attempts to use FU when none available
system.switch_cpus_10.iq.fu_full::SimdAddAcc            0      0.00%     86.84% # attempts to use FU when none available
system.switch_cpus_10.iq.fu_full::SimdAlu            0      0.00%     86.84% # attempts to use FU when none available
system.switch_cpus_10.iq.fu_full::SimdCmp            0      0.00%     86.84% # attempts to use FU when none available
system.switch_cpus_10.iq.fu_full::SimdCvt            9      0.30%     87.14% # attempts to use FU when none available
system.switch_cpus_10.iq.fu_full::SimdMisc            0      0.00%     87.14% # attempts to use FU when none available
system.switch_cpus_10.iq.fu_full::SimdMult            0      0.00%     87.14% # attempts to use FU when none available
system.switch_cpus_10.iq.fu_full::SimdMultAcc            0      0.00%     87.14% # attempts to use FU when none available
system.switch_cpus_10.iq.fu_full::SimdShift            0      0.00%     87.14% # attempts to use FU when none available
system.switch_cpus_10.iq.fu_full::SimdShiftAcc            0      0.00%     87.14% # attempts to use FU when none available
system.switch_cpus_10.iq.fu_full::SimdDiv            0      0.00%     87.14% # attempts to use FU when none available
system.switch_cpus_10.iq.fu_full::SimdSqrt            0      0.00%     87.14% # attempts to use FU when none available
system.switch_cpus_10.iq.fu_full::SimdFloatAdd            0      0.00%     87.14% # attempts to use FU when none available
system.switch_cpus_10.iq.fu_full::SimdFloatAlu            0      0.00%     87.14% # attempts to use FU when none available
system.switch_cpus_10.iq.fu_full::SimdFloatCmp            0      0.00%     87.14% # attempts to use FU when none available
system.switch_cpus_10.iq.fu_full::SimdFloatCvt            0      0.00%     87.14% # attempts to use FU when none available
system.switch_cpus_10.iq.fu_full::SimdFloatDiv            0      0.00%     87.14% # attempts to use FU when none available
system.switch_cpus_10.iq.fu_full::SimdFloatMisc            0      0.00%     87.14% # attempts to use FU when none available
[...]
system.cpu1.l2cache.tags.pwrStateResidencyTicks::UNDEFINED 1320425425527                       # Cumulative time (in ticks) in various power states
system.cpu1.l2cache.tags.tagsinuse          76.156378                       # Cycle average of tags in use
system.cpu1.l2cache.tags.total_refs            113210                       # Total number of references to valid blocks.
system.cpu1.l2cache.tags.sampled_refs           30356                       # Sample count of references to valid blocks.
system.cpu1.l2cache.tags.avg_refs            3.729411                       # Average number of references to valid blocks.
system.cpu1.l2cache.tags.warmup_cycle    1293351708033                       # Cycle when the warmup percentage was hit.
system.cpu1.l2cache.tags.occ_blocks::.cpu1.inst     0.003711                       # Average occupied blocks per requestor
system.cpu1.l2cache.tags.occ_blocks::.cpu1.data     0.020504                       # Average occupied blocks per requestor
system.cpu1.l2cache.tags.occ_blocks::.switch_cpus1.inst     0.696988                       # Average occupied blocks per requestor
system.cpu1.l2cache.tags.occ_blocks::.switch_cpus1.data    11.053595                       # Average occupied blocks per requestor
system.cpu1.l2cache.tags.occ_blocks::.switch_cpus_11.inst     0.184732                       # Average occupied blocks per requestor
system.cpu1.l2cache.tags.occ_blocks::.switch_cpus_11.data    64.196849                       # Average occupied blocks per requestor
system.cpu1.l2cache.tags.occ_percent::.cpu1.inst     0.000001                       # Average percentage of cache occupancy
system.cpu1.l2cache.tags.occ_percent::.cpu1.data     0.000005                       # Average percentage of cache occupancy
system.cpu1.l2cache.tags.occ_percent::.switch_cpus1.inst     0.000170                       # Average percentage of cache occupancy
system.cpu1.l2cache.tags.occ_percent::.switch_cpus1.data     0.002699                       # Average percentage of cache occupancy
system.cpu1.l2cache.tags.occ_percent::.switch_cpus_11.inst     0.000045                       # Average percentage of cache occupancy
system.cpu1.l2cache.tags.occ_percent::.switch_cpus_11.data     0.015673                       # Average percentage of cache occupancy
system.cpu1.l2cache.tags.occ_percent::total     0.018593                       # Average percentage of cache occupancy
system.cpu1.l2cache.tags.occ_task_id_blocks::1024         4096                       # Occupied blocks per task id
system.cpu1.l2cache.tags.age_task_id_blocks_1024::0           12                       # Occupied blocks per task id
system.cpu1.l2cache.tags.age_task_id_blocks_1024::1           72                       # Occupied blocks per task id
system.cpu1.l2cache.tags.age_task_id_blocks_1024::2         1066                       # Occupied blocks per task id
system.cpu1.l2cache.tags.age_task_id_blocks_1024::3         2437                       # Occupied blocks per task id
system.cpu1.l2cache.tags.age_task_id_blocks_1024::4          509                       # Occupied blocks per task id
system.cpu1.l2cache.tags.occ_task_id_percent::1024            1                       # Percentage of cache occupancy per task id
system.cpu1.l2cache.tags.tag_accesses         1841764                       # Number of tag accesses
system.cpu1.l2cache.tags.data_accesses        1841764                       # Number of data accesses
system.cpu1.toL2Bus.pwrStateResidencyTicks::UNDEFINED 1320425425527                       # Cumulative time (in ticks) in various power states
system.cpu1.toL2Bus.trans_dist::ReadResp        56880                       # Transaction distribution
system.cpu1.toL2Bus.trans_dist::WritebackDirty          186                       # Transaction distribution
system.cpu1.toL2Bus.trans_dist::CleanEvict        82544                       # Transaction distribution
system.cpu1.toL2Bus.trans_dist::ReadExReq          148                       # Transaction distribution
system.cpu1.toL2Bus.trans_dist::ReadExResp          148                       # Transaction distribution
system.cpu1.toL2Bus.trans_dist::ReadCleanReq          286                       # Transaction distribution
system.cpu1.toL2Bus.trans_dist::ReadSharedReq        56594                       # Transaction distribution
system.cpu1.toL2Bus.pkt_count_system.cpu1.icache.mem_side::system.cpu1.l2cache.cpu_side          572                       # Packet count per connected master and slave (bytes)
system.cpu1.toL2Bus.pkt_count_system.cpu1.dcache.mem_side::system.cpu1.l2cache.cpu_side       169714                       # Packet count per connected master and slave (bytes)
system.cpu1.toL2Bus.pkt_count::total           170286                       # Packet count per connected master and slave (bytes)
system.cpu1.toL2Bus.pkt_size_system.cpu1.icache.mem_side::system.cpu1.l2cache.cpu_side        18304                       # Cumulative packet size per connected master and slave (bytes)
system.cpu1.toL2Bus.pkt_size_system.cpu1.dcache.mem_side::system.cpu1.l2cache.cpu_side      3642880                       # Cumulative packet size per connected master and slave (bytes)
system.cpu1.toL2Bus.pkt_size::total           3661184                       # Cumulative packet size per connected master and slave (bytes)
system.cpu1.toL2Bus.snoops                      26500                       # Total snoops (count)
system.cpu1.toL2Bus.snoopTraffic                  512                       # Total snoop traffic (bytes)
system.cpu1.toL2Bus.snoop_fanout::samples        83528                       # Request fanout histogram
system.cpu1.toL2Bus.snoop_fanout::mean       0.006489                       # Request fanout histogram
system.cpu1.toL2Bus.snoop_fanout::stdev      0.080292                       # Request fanout histogram
system.cpu1.toL2Bus.snoop_fanout::underflows            0      0.00%      0.00% # Request fanout histogram
system.cpu1.toL2Bus.snoop_fanout::0             82986     99.35%     99.35% # Request fanout histogram
system.cpu1.toL2Bus.snoop_fanout::1               542      0.65%    100.00% # Request fanout histogram
system.cpu1.toL2Bus.snoop_fanout::2                 0      0.00%    100.00% # Request fanout histogram
system.cpu1.toL2Bus.snoop_fanout::3                 0      0.00%    100.00% # Request fanout histogram
system.cpu1.toL2Bus.snoop_fanout::4                 0      0.00%    100.00% # Request fanout histogram
system.cpu1.toL2Bus.snoop_fanout::overflows            0      0.00%    100.00% # Request fanout histogram
system.cpu1.toL2Bus.snoop_fanout::min_value            0                       # Request fanout histogram
system.cpu1.toL2Bus.snoop_fanout::max_value            1                       # Request fanout histogram
system.cpu1.toL2Bus.snoop_fanout::total         83528                       # Request fanout histogram
system.cpu1.toL2Bus.reqLayer0.occupancy      47376204                       # Layer occupancy (ticks)
system.cpu1.toL2Bus.reqLayer0.utilization          0.2                       # Layer utilization (%)
system.cpu1.toL2Bus.respLayer1.occupancy     70982991                       # Layer occupancy (ticks)
system.cpu1.toL2Bus.respLayer1.utilization          0.3                       # Layer utilization (%)
system.cpu1.toL2Bus.respLayer0.occupancy       356535                       # Layer occupancy (ticks)
system.cpu1.toL2Bus.respLayer0.utilization          0.0                       # Layer utilization (%)
system.switch_cpus_10.numPwrStateTransitions            1                       # Number of power state transitions
system.switch_cpus_10.pwrStateClkGateDist::samples            1                       # Distribution of time spent in the clock gated state
system.switch_cpus_10.pwrStateClkGateDist::mean  24645031932                       # Distribution of time spent in the clock gated state
system.switch_cpus_10.pwrStateClkGateDist::1000-5e+10            1    100.00%    100.00% # Distribution of time spent in the clock gated state
system.switch_cpus_10.pwrStateClkGateDist::min_value  24645031932                       # Distribution of time spent in the clock gated state
system.switch_cpus_10.pwrStateClkGateDist::max_value  24645031932                       # Distribution of time spent in the clock gated state
system.switch_cpus_10.pwrStateClkGateDist::total            1                       # Distribution of time spent in the clock gated state
system.switch_cpus_10.pwrStateResidencyTicks::CLK_GATED  24645031932                       # Cumulative time (in ticks) in various power states
system.switch_cpus_10.pwrStateResidencyTicks::OFF   2428685979                       # Cumulative time (in ticks) in various power states
system.switch_cpus_10.dtb.walker.pwrStateResidencyTicks::UNDEFINED 1320425425527                       # Cumulative time (in ticks) in various power states
system.switch_cpus_10.itb.walker.pwrStateResidencyTicks::UNDEFINED 1320425425527                       # Cumulative time (in ticks) in various power states
system.switch_cpus_11.pwrStateResidencyTicks::OFF  27073717911                       # Cumulative time (in ticks) in various power states
system.switch_cpus_11.dtb.walker.pwrStateResidencyTicks::UNDEFINED 1320425425527                       # Cumulative time (in ticks) in various power states
system.switch_cpus_11.itb.walker.pwrStateResidencyTicks::UNDEFINED 1320425425527                       # Cumulative time (in ticks) in various power states
system.cpu_voltage_domain.voltage                   1                       # Voltage in Volts
system.switch_cpus1.numPwrStateTransitions            1                       # Number of power state transitions
system.switch_cpus1.pwrStateResidencyTicks::UNDEFINED 1293351707616                       # Cumulative time (in ticks) in various power states
system.switch_cpus1.pwrStateResidencyTicks::OFF  27073717911                       # Cumulative time (in ticks) in various power states
system.switch_cpus1.dtb.walker.pwrStateResidencyTicks::UNDEFINED 1320425425527                       # Cumulative time (in ticks) in various power states
system.switch_cpus1.itb.walker.pwrStateResidencyTicks::UNDEFINED 1320425425527                       # Cumulative time (in ticks) in various power states
system.mem_ctrls.pwrStateResidencyTicks::UNDEFINED 1320425425527                       # Cumulative time (in ticks) in various power states
system.mem_ctrls.bytes_read::.cpu0.inst            64                       # Number of bytes read from this memory
system.mem_ctrls.bytes_read::.cpu0.data            64                       # Number of bytes read from this memory
system.mem_ctrls.bytes_read::.cpu1.inst            64                       # Number of bytes read from this memory
system.mem_ctrls.bytes_read::.cpu1.data            64                       # Number of bytes read from this memory
system.mem_ctrls.bytes_read::.switch_cpus0.inst         9024                       # Number of bytes read from this memory
system.mem_ctrls.bytes_read::.switch_cpus0.data        10624                       # Number of bytes read from this memory
system.mem_ctrls.bytes_read::.switch_cpus1.inst        12672                       # Number of bytes read from this memory
system.mem_ctrls.bytes_read::.switch_cpus1.data        77312                       # Number of bytes read from this memory
system.mem_ctrls.bytes_read::.switch_cpus_10.inst        31040                       # Number of bytes read from this memory
system.mem_ctrls.bytes_read::.switch_cpus_10.data        22656                       # Number of bytes read from this memory
system.mem_ctrls.bytes_read::.switch_cpus_11.inst         5568                       # Number of bytes read from this memory
system.mem_ctrls.bytes_read::.switch_cpus_11.data      1845824                       # Number of bytes read from this memory
system.mem_ctrls.bytes_read::total            2014976                       # Number of bytes read from this memory
system.mem_ctrls.bytes_inst_read::.cpu0.inst           64                       # Number of instructions bytes read from this memory
system.mem_ctrls.bytes_inst_read::.cpu1.inst           64                       # Number of instructions bytes read from this memory
system.mem_ctrls.bytes_inst_read::.switch_cpus0.inst         9024                       # Number of instructions bytes read from this memory
system.mem_ctrls.bytes_inst_read::.switch_cpus1.inst        12672                       # Number of instructions bytes read from this memory
system.mem_ctrls.bytes_inst_read::.switch_cpus_10.inst        31040                       # Number of instructions bytes read from this memory
system.mem_ctrls.bytes_inst_read::.switch_cpus_11.inst         5568                       # Number of instructions bytes read from this memory
system.mem_ctrls.bytes_inst_read::total         58432                       # Number of instructions bytes read from this memory
system.mem_ctrls.bytes_written::.switch_cpus1.data           64                       # Number of bytes written to this memory
system.mem_ctrls.bytes_written::total              64                       # Number of bytes written to this memory
system.mem_ctrls.num_reads::.cpu0.inst              1                       # Number of read requests responded to by this memory
system.mem_ctrls.num_reads::.cpu0.data              1                       # Number of read requests responded to by this memory
system.mem_ctrls.num_reads::.cpu1.inst              1                       # Number of read requests responded to by this memory
system.mem_ctrls.num_reads::.cpu1.data              1                       # Number of read requests responded to by this memory
system.mem_ctrls.num_reads::.switch_cpus0.inst          141                       # Number of read requests responded to by this memory
system.mem_ctrls.num_reads::.switch_cpus0.data          166                       # Number of read requests responded to by this memory
system.mem_ctrls.num_reads::.switch_cpus1.inst          198                       # Number of read requests responded to by this memory
system.mem_ctrls.num_reads::.switch_cpus1.data         1208                       # Number of read requests responded to by this memory
system.mem_ctrls.num_reads::.switch_cpus_10.inst          485                       # Number of read requests responded to by this memory
system.mem_ctrls.num_reads::.switch_cpus_10.data          354                       # Number of read requests responded to by this memory
system.mem_ctrls.num_reads::.switch_cpus_11.inst           87                       # Number of read requests responded to by this memory
system.mem_ctrls.num_reads::.switch_cpus_11.data        28841                       # Number of read requests responded to by this memory
system.mem_ctrls.num_reads::total               31484                       # Number of read requests responded to by this memory
system.mem_ctrls.num_writes::.switch_cpus1.data            1                       # Number of write requests responded to by this memory
system.mem_ctrls.num_writes::total                  1                       # Number of write requests responded to by this memory
system.mem_ctrls.bw_read::.cpu0.inst             2364                       # Total read bandwidth from this memory (bytes/s)
system.mem_ctrls.bw_read::.cpu0.data             2364                       # Total read bandwidth from this memory (bytes/s)
system.mem_ctrls.bw_read::.cpu1.inst             2364                       # Total read bandwidth from this memory (bytes/s)
system.mem_ctrls.bw_read::.cpu1.data             2364                       # Total read bandwidth from this memory (bytes/s)
system.mem_ctrls.bw_read::.switch_cpus0.inst       333312                       # Total read bandwidth from this memory (bytes/s)
system.mem_ctrls.bw_read::.switch_cpus0.data       392410                       # Total read bandwidth from this memory (bytes/s)
system.mem_ctrls.bw_read::.switch_cpus1.inst       468055                       # Total read bandwidth from this memory (bytes/s)
system.mem_ctrls.bw_read::.switch_cpus1.data      2855611                       # Total read bandwidth from this memory (bytes/s)
system.mem_ctrls.bw_read::.switch_cpus_10.inst      1146499                       # Total read bandwidth from this memory (bytes/s)
system.mem_ctrls.bw_read::.switch_cpus_10.data       836826                       # Total read bandwidth from this memory (bytes/s)
system.mem_ctrls.bw_read::.switch_cpus_11.inst       205661                       # Total read bandwidth from this memory (bytes/s)
system.mem_ctrls.bw_read::.switch_cpus_11.data     68177707                       # Total read bandwidth from this memory (bytes/s)
system.mem_ctrls.bw_read::total              74425537                       # Total read bandwidth from this memory (bytes/s)
system.mem_ctrls.bw_inst_read::.cpu0.inst         2364                       # Instruction read bandwidth from this memory (bytes/s)
system.mem_ctrls.bw_inst_read::.cpu1.inst         2364                       # Instruction read bandwidth from this memory (bytes/s)
system.mem_ctrls.bw_inst_read::.switch_cpus0.inst       333312                       # Instruction read bandwidth from this memory (bytes/s)
system.mem_ctrls.bw_inst_read::.switch_cpus1.inst       468055                       # Instruction read bandwidth from this memory (bytes/s)
system.mem_ctrls.bw_inst_read::.switch_cpus_10.inst      1146499                       # Instruction read bandwidth from this memory (bytes/s)
system.mem_ctrls.bw_inst_read::.switch_cpus_11.inst       205661                       # Instruction read bandwidth from this memory (bytes/s)
system.mem_ctrls.bw_inst_read::total          2158255                       # Instruction read bandwidth from this memory (bytes/s)
system.mem_ctrls.bw_write::.switch_cpus1.data         2364                       # Write bandwidth from this memory (bytes/s)
system.mem_ctrls.bw_write::total                 2364                       # Write bandwidth from this memory (bytes/s)
system.mem_ctrls.bw_total::.cpu0.inst            2364                       # Total bandwidth to/from this memory (bytes/s)
system.mem_ctrls.bw_total::.cpu0.data            2364                       # Total bandwidth to/from this memory (bytes/s)
system.mem_ctrls.bw_total::.cpu1.inst            2364                       # Total bandwidth to/from this memory (bytes/s)
system.mem_ctrls.bw_total::.cpu1.data            2364                       # Total bandwidth to/from this memory (bytes/s)
system.mem_ctrls.bw_total::.switch_cpus0.inst       333312                       # Total bandwidth to/from this memory (bytes/s)
system.mem_ctrls.bw_total::.switch_cpus0.data       392410                       # Total bandwidth to/from this memory (bytes/s)
system.mem_ctrls.bw_total::.switch_cpus1.inst       468055                       # Total bandwidth to/from this memory (bytes/s)
system.mem_ctrls.bw_total::.switch_cpus1.data      2857975                       # Total bandwidth to/from this memory (bytes/s)
system.mem_ctrls.bw_total::.switch_cpus_10.inst      1146499                       # Total bandwidth to/from this memory (bytes/s)
system.mem_ctrls.bw_total::.switch_cpus_10.data       836826                       # Total bandwidth to/from this memory (bytes/s)
system.mem_ctrls.bw_total::.switch_cpus_11.inst       205661                       # Total bandwidth to/from this memory (bytes/s)
system.mem_ctrls.bw_total::.switch_cpus_11.data     68177707                       # Total bandwidth to/from this memory (bytes/s)
system.mem_ctrls.bw_total::total             74427901                       # Total bandwidth to/from this memory (bytes/s)
system.cpu_clk_domain.clock                       417                       # Clock period in ticks

---------- End Simulation Statistics   ----------
