
---------- Begin Simulation Statistics ----------
final_tick                               1319446388340                       # Number of ticks from beginning of simulation (restored from checkpoints and never reset)
host_inst_rate                                 148240                       # Simulator instruction rate (inst/s)
host_mem_usage                                4559796                       # Number of bytes of host memory used
host_op_rate                                   319255                       # Simulator op (including micro ops) rate (op/s)
host_seconds                                   676.19                       # Real time elapsed on the host
host_tick_rate                               38590895                       # Simulator tick rate (ticks/s)
sim_freq                                 1000000000000                       # Frequency of simulated ticks
sim_insts                                   100237695                       # Number of instructions simulated
sim_ops                                     215876228                       # Number of ops (including micro ops) simulated
sim_seconds                                  0.026095                       # Number of seconds simulated
sim_ticks                                 26094680724                       # Number of ticks simulated
system.cpu0.committedInsts                          2                       # Number of instructions committed
system.cpu0.committedOps                            4                       # Number of ops (including micro ops) committed
system.cpu0.dtb.rdAccesses                          0                       # TLB accesses on read requests
system.cpu0.dtb.rdMisses                            0                       # TLB misses on read requests
system.cpu0.dtb.wrAccesses                          0                       # TLB accesses on write requests
system.cpu0.dtb.wrMisses                            0                       # TLB misses on write requests
system.cpu0.idle_fraction                           0                       # Percentage of idle cycles
system.cpu0.itb.rdAccesses                          0                       # TLB accesses on read requests
system.cpu0.itb.rdMisses                            0                       # TLB misses on read requests
system.cpu0.itb.wrAccesses                          2                       # TLB accesses on write requests
system.cpu0.itb.wrMisses                            0                       # TLB misses on write requests
system.cpu0.not_idle_fraction                       1                       # Percentage of non-idle cycles
system.cpu0.numCycles                               4                       # number of cpu cycles simulated
system.cpu0.numWorkItemsCompleted                   0                       # number of work items this cpu completed
system.cpu0.numWorkItemsStarted                     0                       # number of work items this cpu started
system.cpu0.num_busy_cycles                         4                       # Number of busy cycles
system.cpu0.num_cc_register_reads                   1                       # number of times the CC registers were read
system.cpu0.num_cc_register_writes                  4                       # number of times the CC registers were written
system.cpu0.num_conditional_control_insts            0                       # number of instructions that are conditional controls
system.cpu0.num_fp_alu_accesses                     0                       # Number of float alu accesses
system.cpu0.num_fp_insts                            0                       # number of float instructions
system.cpu0.num_fp_register_reads                   0                       # number of times the floating registers were read
system.cpu0.num_fp_register_writes                  0                       # number of times the floating registers were written
system.cpu0.num_func_calls                          0                       # number of times a function call or return occured
system.cpu0.num_idle_cycles                         0                       # Number of idle cycles
system.cpu0.num_int_alu_accesses                    4                       # Number of integer alu accesses
system.cpu0.num_int_insts                           4                       # number of integer instructions
system.cpu0.num_int_register_reads                  4                       # number of times the integer registers were read
system.cpu0.num_int_register_writes                 4                       # number of times the integer registers were written
system.cpu0.num_load_insts                          0                       # Number of load instructions
system.cpu0.num_mem_refs                            0                       # number of memory refs
system.cpu0.num_store_insts                         0                       # Number of store instructions
system.cpu0.num_vec_alu_accesses                    0                       # Number of vector alu accesses
system.cpu0.num_vec_insts                           0                       # number of vector instructions
system.cpu0.num_vec_register_reads                  0                       # number of times the vector registers were read
system.cpu0.num_vec_register_writes                 0                       # number of times the vector registers were written
system.cpu0.op_class::No_OpClass                    0      0.00%      0.00% # Class of executed instruction
system.cpu0.op_class::IntAlu                        4    100.00%    100.00% # Class of executed instruction
system.cpu0.op_class::IntMult                       0      0.00%    100.00% # Class of executed instruction
system.cpu0.op_class::IntDiv                        0      0.00%    100.00% # Class of executed instruction
system.cpu0.op_class::FloatAdd                      0      0.00%    100.00% # Class of executed instruction
system.cpu0.op_class::FloatCmp                      0      0.00%    100.00% # Class of executed instruction
system.cpu0.op_class::FloatCvt                      0      0.00%    100.00% # Class of executed instruction
system.cpu0.op_class::FloatMult                     0      0.00%    100.00% # Class of executed instruction
system.cpu0.op_class::FloatMultAcc                  0      0.00%    100.00% # Class of executed instruction
system.cpu0.op_class::FloatDiv                      0      0.00%    100.00% # Class of executed instruction
system.cpu0.op_class::FloatMisc                     0      0.00%    100.00% # Class of executed instruction
system.cpu0.op_class::FloatSqrt                     0      0.00%    100.00% # Class of executed instruction
system.cpu0.op_class::SimdAdd                       0      0.00%    100.00% # Class of executed instruction
system.cpu0.op_class::SimdAddAcc                    0      0.00%    100.00% # Class of executed instruction
system.cpu0.op_class::SimdAlu                       0      0.00%    100.00% # Class of executed instruction
system.cpu0.op_class::SimdCmp                       0      0.00%    100.00% # Class of executed instruction
system.cpu0.op_class::SimdCvt                       0      0.00%    100.00% # Class of executed instruction
system.cpu0.op_class::SimdMisc                      0      0.00%    100.00% # Class of executed instruction
system.cpu0.op_class::SimdMult                      0      0.00%    100.00% # Class of executed instruction
system.cpu0.op_class::SimdMultAcc                   0      0.00%    100.00% # Class of executed instruction
system.cpu0.op_class::SimdShift                     0      0.00%    100.00% # Class of executed instruction
system.cpu0.op_class::SimdShiftAcc                  0      0.00%    100.00% # Class of executed instruction
system.cpu0.op_class::SimdDiv                       0      0.00%    100.00% # Class of executed instruction
system.cpu0.op_class::SimdSqrt                      0      0.00%    100.00% # Class of executed instruction
system.cpu0.op_class::SimdFloatAdd                  0      0.00%    100.00% # Class of executed instruction
system.cpu0.op_class::SimdFloatAlu                  0      0.00%    100.00% # Class of executed instruction
system.cpu0.op_class::SimdFloatCmp                  0      0.00%    100.00% # Class of executed instruction
system.cpu0.op_class::SimdFloatCvt                  0      0.00%    100.00% # Class of executed instruction
system.cpu0.op_class::SimdFloatDiv                  0      0.00%    100.00% # Class of executed instruction
system.cpu0.op_class::SimdFloatMisc                 0      0.00%    100.00% # Class of executed instruction
system.cpu0.op_class::SimdFloatMult                 0      0.00%    100.00% # Class of executed instruction
system.cpu0.op_class::SimdFloatMultAcc              0      0.00%    100.00% # Class of executed instruction
system.cpu0.op_class::SimdFloatSqrt                 0      0.00%    100.00% # Class of executed instruction
system.cpu0.op_class::SimdReduceAdd                 0      0.00%    100.00% # Class of executed instruction
system.cpu0.op_class::SimdReduceAlu                 0      0.00%    100.00% # Class of executed instruction
system.cpu0.op_class::SimdReduceCmp                 0      0.00%    100.00% # Class of executed instruction
system.cpu0.op_class::SimdFloatReduceAdd            0      0.00%    100.00% # Class of executed instruction
system.cpu0.op_class::SimdFloatReduceCmp            0      0.00%    100.00% # Class of executed instruction
system.cpu0.op_class::SimdAes                       0      0.00%    100.00% # Class of executed instruction
system.cpu0.op_class::SimdAesMix                    0      0.00%    100.00% # Class of executed instruction
system.cpu0.op_class::SimdSha1Hash                  0      0.00%    100.00% # Class of executed instruction
system.cpu0.op_class::SimdSha1Hash2                 0      0.00%    100.00% # Class of executed instruction
system.cpu0.op_class::SimdSha256Hash                0      0.00%    100.00% # Class of executed instruction
system.cpu0.op_class::SimdSha256Hash2               0      0.00%    100.00% # Class of executed instruction
system.cpu0.op_class::SimdShaSigma2                 0      0.00%    100.00% # Class of executed instruction
system.cpu0.op_class::SimdShaSigma3                 0      0.00%    100.00% # Class of executed instruction
system.cpu0.op_class::SimdPredAlu                   0      0.00%    100.00% # Class of executed instruction
system.cpu0.op_class::MemRead                       0      0.00%    100.00% # Class of executed instruction
system.cpu0.op_class::MemWrite                      0      0.00%    100.00% # Class of executed instruction
system.cpu0.op_class::FloatMemRead                  0      0.00%    100.00% # Class of executed instruction
system.cpu0.op_class::FloatMemWrite                 0      0.00%    100.00% # Class of executed instruction
system.cpu0.op_class::IprAccess                     0      0.00%    100.00% # Class of executed instruction
system.cpu0.op_class::InstPrefetch                  0      0.00%    100.00% # Class of executed instruction
system.cpu0.op_class::total                         4                       # Class of executed instruction
system.cpu0.toL2Bus.snoop_filter.hit_multi_requests           46                       # Number of requests hitting in the snoop filter with multiple (>1) holders of the requested data.
system.cpu0.toL2Bus.snoop_filter.hit_multi_snoops            0                       # Number of snoops hitting in the snoop filter with multiple (>1) holders of the requested data.
system.cpu0.toL2Bus.snoop_filter.hit_single_requests        13021                       # Number of requests hitting in the snoop filter with a single holder of the requested data.
system.cpu0.toL2Bus.snoop_filter.hit_single_snoops          584                       # Number of snoops hitting in the snoop filter with a single holder of the requested data.
system.cpu0.toL2Bus.snoop_filter.tot_requests        27060                       # Total number of requests made to the snoop filter.
system.cpu0.toL2Bus.snoop_filter.tot_snoops          584                       # Total number of snoops made to the snoop filter.
system.cpu0.toL3Bus.snoop_filter.hit_multi_requests            0                       # Number of requests hitting in the snoop filter with multiple (>1) holders of the requested data.
system.cpu0.toL3Bus.snoop_filter.hit_multi_snoops            0                       # Number of snoops hitting in the snoop filter with multiple (>1) holders of the requested data.
system.cpu0.toL3Bus.snoop_filter.hit_single_requests         2611                       # Number of requests hitting in the snoop filter with a single holder of the requested data.
system.cpu0.toL3Bus.snoop_filter.hit_single_snoops            0                       # Number of snoops hitting in the snoop filter with a single holder of the requested data.
system.cpu0.toL3Bus.snoop_filter.tot_requests         9745                       # Total number of requests made to the snoop filter.
system.cpu0.toL3Bus.snoop_filter.tot_snoops            0                       # Total number of snoops made to the snoop filter.
system.cpu0.workload.numSyscalls                    1                       # Number of system calls
system.cpu1.Branches                                1                       # Number of branches fetched
system.cpu1.committedInsts                          1                       # Number of instructions committed
system.cpu1.committedOps                            5                       # Number of ops (including micro ops) committed
system.cpu1.dtb.rdAccesses                          0                       # TLB accesses on read requests
system.cpu1.dtb.rdMisses                            0                       # TLB misses on read requests
system.cpu1.dtb.wrAccesses                          1                       # TLB accesses on write requests
system.cpu1.dtb.wrMisses                            0                       # TLB misses on write requests
system.cpu1.idle_fraction                           0                       # Percentage of idle cycles
system.cpu1.itb.rdAccesses                          0                       # TLB accesses on read requests
system.cpu1.itb.rdMisses                            0                       # TLB misses on read requests
system.cpu1.itb.wrAccesses                          2                       # TLB accesses on write requests
system.cpu1.itb.wrMisses                            0                       # TLB misses on write requests
system.cpu1.not_idle_fraction                       1                       # Percentage of non-idle cycles
system.cpu1.numCycles                               6                       # number of cpu cycles simulated
system.cpu1.numWorkItemsCompleted                   0                       # number of work items this cpu completed
system.cpu1.numWorkItemsStarted                     0                       # number of work items this cpu started
system.cpu1.num_busy_cycles                         6                       # Number of busy cycles
system.cpu1.num_conditional_control_insts            0                       # number of instructions that are conditional controls
system.cpu1.num_fp_alu_accesses                     0                       # Number of float alu accesses
system.cpu1.num_fp_insts                            0                       # number of float instructions
system.cpu1.num_fp_register_reads                   0                       # number of times the floating registers were read
system.cpu1.num_fp_register_writes                  0                       # number of times the floating registers were written
system.cpu1.num_func_calls                          1                       # number of times a function call or return occured
system.cpu1.num_idle_cycles                         0                       # Number of idle cycles
system.cpu1.num_int_alu_accesses                    5                       # Number of integer alu accesses
system.cpu1.num_int_insts                           5                       # number of integer instructions
system.cpu1.num_int_register_reads                  9                       # number of times the integer registers were read
system.cpu1.num_int_register_writes                 3                       # number of times the integer registers were written
system.cpu1.num_load_insts                          0                       # Number of load instructions
system.cpu1.num_mem_refs                            1                       # number of memory refs
system.cpu1.num_store_insts                         1                       # Number of store instructions
system.cpu1.num_vec_alu_accesses                    0                       # Number of vector alu accesses
system.cpu1.num_vec_insts                           0                       # number of vector instructions
system.cpu1.num_vec_register_reads                  0                       # number of times the vector registers were read
system.cpu1.num_vec_register_writes                 0                       # number of times the vector registers were written
system.cpu1.op_class::No_OpClass                    0      0.00%      0.00% # Class of executed instruction
system.cpu1.op_class::IntAlu                        4     80.00%     80.00% # Class of executed instruction
system.cpu1.op_class::IntMult                       0      0.00%     80.00% # Class of executed instruction
system.cpu1.op_class::IntDiv                        0      0.00%     80.00% # Class of executed instruction
system.cpu1.op_class::FloatAdd                      0      0.00%     80.00% # Class of executed instruction
system.cpu1.op_class::FloatCmp                      0      0.00%     80.00% # Class of executed instruction
system.cpu1.op_class::FloatCvt                      0      0.00%     80.00% # Class of executed instruction
system.cpu1.op_class::FloatMult                     0      0.00%     80.00% # Class of executed instruction
system.cpu1.op_class::FloatMultAcc                  0      0.00%     80.00% # Class of executed instruction
system.cpu1.op_class::FloatDiv                      0      0.00%     80.00% # Class of executed instruction
system.cpu1.op_class::FloatMisc                     0      0.00%     80.00% # Class of executed instruction
system.cpu1.op_class::FloatSqrt                     0      0.00%     80.00% # Class of executed instruction
system.cpu1.op_class::SimdAdd                       0      0.00%     80.00% # Class of executed instruction
system.cpu1.op_class::SimdAddAcc                    0      0.00%     80.00% # Class of executed instruction
system.cpu1.op_class::SimdAlu                       0      0.00%     80.00% # Class of executed instruction
system.cpu1.op_class::SimdCmp                       0      0.00%     80.00% # Class of executed instruction
system.cpu1.op_class::SimdCvt                       0      0.00%     80.00% # Class of executed instruction
system.cpu1.op_class::SimdMisc                      0      0.00%     80.00% # Class of executed instruction
system.cpu1.op_class::SimdMult                      0      0.00%     80.00% # Class of executed instruction
system.cpu1.op_class::SimdMultAcc                   0      0.00%     80.00% # Class of executed instruction
system.cpu1.op_class::SimdShift                     0      0.00%     80.00% # Class of executed instruction
system.cpu1.op_class::SimdShiftAcc                  0      0.00%     80.00% # Class of executed instruction
system.cpu1.op_class::SimdDiv                       0      0.00%     80.00% # Class of executed instruction
system.cpu1.op_class::SimdSqrt                      0      0.00%     80.00% # Class of executed instruction
system.cpu1.op_class::SimdFloatAdd                  0      0.00%     80.00% # Class of executed instruction
system.cpu1.op_class::SimdFloatAlu                  0      0.00%     80.00% # Class of executed instruction
system.cpu1.op_class::SimdFloatCmp                  0      0.00%     80.00% # Class of executed instruction
system.cpu1.op_class::SimdFloatCvt                  0      0.00%     80.00% # Class of executed instruction
system.cpu1.op_class::SimdFloatDiv                  0      0.00%     80.00% # Class of executed instruction
system.cpu1.op_class::SimdFloatMisc                 0      0.00%     80.00% # Class of executed instruction
system.cpu1.op_class::SimdFloatMult                 0      0.00%     80.00% # Class of executed instruction
system.cpu1.op_class::SimdFloatMultAcc              0      0.00%     80.00% # Class of executed instruction
system.cpu1.op_class::SimdFloatSqrt                 0      0.00%     80.00% # Class of executed instruction
system.cpu1.op_class::SimdReduceAdd                 0      0.00%     80.00% # Class of executed instruction
system.cpu1.op_class::SimdReduceAlu                 0      0.00%     80.00% # Class of executed instruction
system.cpu1.op_class::SimdReduceCmp                 0      0.00%     80.00% # Class of executed instruction
system.cpu1.op_class::SimdFloatReduceAdd            0      0.00%     80.00% # Class of executed instruction
system.cpu1.op_class::SimdFloatReduceCmp            0      0.00%     80.00% # Class of executed instruction
system.cpu1.op_class::SimdAes                       0      0.00%     80.00% # Class of executed instruction
system.cpu1.op_class::SimdAesMix                    0      0.00%     80.00% # Class of executed instruction
system.cpu1.op_class::SimdSha1Hash                  0      0.00%     80.00% # Class of executed instruction
system.cpu1.op_class::SimdSha1Hash2                 0      0.00%     80.00% # Class of executed instruction
system.cpu1.op_class::SimdSha256Hash                0      0.00%     80.00% # Class of executed instruction
system.cpu1.op_class::SimdSha256Hash2               0      0.00%     80.00% # Class of executed instruction
system.cpu1.op_class::SimdShaSigma2                 0      0.00%     80.00% # Class of executed instruction
system.cpu1.op_class::SimdShaSigma3                 0      0.00%     80.00% # Class of executed instruction
system.cpu1.op_class::SimdPredAlu                   0      0.00%     80.00% # Class of executed instruction
system.cpu1.op_class::MemRead                       0      0.00%     80.00% # Class of executed instruction
system.cpu1.op_class::MemWrite                      1     20.00%    100.00% # Class of executed instruction
system.cpu1.op_class::FloatMemRead                  0      0.00%    100.00% # Class of executed instruction
system.cpu1.op_class::FloatMemWrite                 0      0.00%    100.00% # Class of executed instruction
system.cpu1.op_class::IprAccess                     0      0.00%    100.00% # Class of executed instruction
system.cpu1.op_class::InstPrefetch                  0      0.00%    100.00% # Class of executed instruction
system.cpu1.op_class::total                         5                       # Class of executed instruction
system.cpu1.toL2Bus.snoop_filter.hit_multi_requests           35                       # Number of requests hitting in the snoop filter with multiple (>1) holders of the requested data.
system.cpu1.toL2Bus.snoop_filter.hit_multi_snoops            0                       # Number of snoops hitting in the snoop filter with multiple (>1) holders of the requested data.
system.cpu1.toL2Bus.snoop_filter.hit_single_requests        54260                       # Number of requests hitting in the snoop filter with a single holder of the requested data.
system.cpu1.toL2Bus.snoop_filter.hit_single_snoops          456                       # Number of snoops hitting in the snoop filter with a single holder of the requested data.
system.cpu1.toL2Bus.snoop_filter.tot_requests       109316                       # Total number of requests made to the snoop filter.
system.cpu1.toL2Bus.snoop_filter.tot_snoops          456                       # Total number of snoops made to the snoop filter.
system.cpu1.toL3Bus.snoop_filter.hit_multi_requests            0                       # Number of requests hitting in the snoop filter with multiple (>1) holders of the requested data.
system.cpu1.toL3Bus.snoop_filter.hit_multi_snoops            0                       # Number of snoops hitting in the snoop filter with multiple (>1) holders of the requested data.
system.cpu1.toL3Bus.snoop_filter.hit_single_requests        24954                       # Number of requests hitting in the snoop filter with a single holder of the requested data.
system.cpu1.toL3Bus.snoop_filter.hit_single_snoops          174                       # Number of snoops hitting in the snoop filter with a single holder of the requested data.
system.cpu1.toL3Bus.snoop_filter.tot_requests        54328                       # Total number of requests made to the snoop filter.
system.cpu1.toL3Bus.snoop_filter.tot_snoops          174                       # Total number of snoops made to the snoop filter.
system.cpu1.workload.numSyscalls                16395                       # Number of system calls
system.membus.snoop_filter.hit_multi_requests            0                       # Number of requests hitting in the snoop filter with multiple (>1) holders of the requested data.
system.membus.snoop_filter.hit_multi_snoops            0                       # Number of snoops hitting in the snoop filter with multiple (>1) holders of the requested data.
system.membus.snoop_filter.hit_single_requests          381                       # Number of requests hitting in the snoop filter with a single holder of the requested data.
system.membus.snoop_filter.hit_single_snoops            0                       # Number of snoops hitting in the snoop filter with a single holder of the requested data.
system.membus.snoop_filter.tot_requests         36720                       # Total number of requests made to the snoop filter.
system.membus.snoop_filter.tot_snoops               0                       # Total number of snoops made to the snoop filter.
system.switch_cpus0.Branches                   255810                       # Number of branches fetched
system.switch_cpus0.committedInsts            1000002                       # Number of instructions committed
system.switch_cpus0.committedOps              2500851                       # Number of ops (including micro ops) committed
system.switch_cpus0.dtb.rdAccesses             269795                       # TLB accesses on read requests
system.switch_cpus0.dtb.rdMisses                  100                       # TLB misses on read requests
system.switch_cpus0.dtb.wrAccesses              39263                       # TLB accesses on write requests
system.switch_cpus0.dtb.wrMisses                    9                       # TLB misses on write requests
system.switch_cpus0.idle_fraction            0.000000                       # Percentage of idle cycles
system.switch_cpus0.itb.rdAccesses                  0                       # TLB accesses on read requests
system.switch_cpus0.itb.rdMisses                    0                       # TLB misses on read requests
system.switch_cpus0.itb.wrAccesses            1291116                       # TLB accesses on write requests
system.switch_cpus0.itb.wrMisses                   30                       # TLB misses on write requests
system.switch_cpus0.not_idle_fraction        1.000000                       # Percentage of non-idle cycles
system.switch_cpus0.numCycles                 5170886                       # number of cpu cycles simulated
system.switch_cpus0.numWorkItemsCompleted            0                       # number of work items this cpu completed
system.switch_cpus0.numWorkItemsStarted             0                       # number of work items this cpu started
system.switch_cpus0.num_busy_cycles      5170885.504207                       # Number of busy cycles
system.switch_cpus0.num_cc_register_reads      2113136                       # number of times the CC registers were read
system.switch_cpus0.num_cc_register_writes       710683                       # number of times the CC registers were written
system.switch_cpus0.num_conditional_control_insts       188505                       # number of instructions that are conditional controls
system.switch_cpus0.num_fp_alu_accesses        303641                       # Number of float alu accesses
system.switch_cpus0.num_fp_insts               303641                       # number of float instructions
system.switch_cpus0.num_fp_register_reads       510265                       # number of times the floating registers were read
system.switch_cpus0.num_fp_register_writes       256758                       # number of times the floating registers were written
system.switch_cpus0.num_func_calls              38683                       # number of times a function call or return occured
system.switch_cpus0.num_idle_cycles          0.495793                       # Number of idle cycles
system.switch_cpus0.num_int_alu_accesses      2259108                       # Number of integer alu accesses
system.switch_cpus0.num_int_insts             2259108                       # number of integer instructions
system.switch_cpus0.num_int_register_reads      4297908                       # number of times the integer registers were read
system.switch_cpus0.num_int_register_writes      1935891                       # number of times the integer registers were written
system.switch_cpus0.num_load_insts             267905                       # Number of load instructions
system.switch_cpus0.num_mem_refs               307166                       # number of memory refs
system.switch_cpus0.num_store_insts             39261                       # Number of store instructions
system.switch_cpus0.num_vec_alu_accesses            0                       # Number of vector alu accesses
system.switch_cpus0.num_vec_insts                   0                       # number of vector instructions
system.switch_cpus0.num_vec_register_reads            0                       # number of times the vector registers were read
system.switch_cpus0.num_vec_register_writes            0                       # number of times the vector registers were written
system.switch_cpus0.op_class::No_OpClass        48847      1.95%      1.95% # Class of executed instruction
system.switch_cpus0.op_class::IntAlu          1896344     75.83%     77.78% # Class of executed instruction
system.switch_cpus0.op_class::IntMult           10350      0.41%     78.19% # Class of executed instruction
system.switch_cpus0.op_class::IntDiv             1208      0.05%     78.24% # Class of executed instruction
system.switch_cpus0.op_class::FloatAdd           1032      0.04%     78.28% # Class of executed instruction
system.switch_cpus0.op_class::FloatCmp              0      0.00%     78.28% # Class of executed instruction
system.switch_cpus0.op_class::FloatCvt              0      0.00%     78.28% # Class of executed instruction
system.switch_cpus0.op_class::FloatMult             0      0.00%     78.28% # Class of executed instruction
system.switch_cpus0.op_class::FloatMultAcc            0      0.00%     78.28% # Class of executed instruction
system.switch_cpus0.op_class::FloatDiv              0      0.00%     78.28% # Class of executed instruction
system.switch_cpus0.op_class::FloatMisc             0      0.00%     78.28% # Class of executed instruction
system.switch_cpus0.op_class::FloatSqrt             0      0.00%     78.28% # Class of executed instruction
system.switch_cpus0.op_class::SimdAdd           18316      0.73%     79.02% # Class of executed instruction
system.switch_cpus0.op_class::SimdAddAcc            0      0.00%     79.02% # Class of executed instruction
system.switch_cpus0.op_class::SimdAlu           96603      3.86%     82.88% # Class of executed instruction
system.switch_cpus0.op_class::SimdCmp               6      0.00%     82.88% # Class of executed instruction
system.switch_cpus0.op_class::SimdCvt           64674      2.59%     85.47% # Class of executed instruction
system.switch_cpus0.op_class::SimdMisc          46423      1.86%     87.32% # Class of executed instruction
system.switch_cpus0.op_class::SimdMult              0      0.00%     87.32% # Class of executed instruction
system.switch_cpus0.op_class::SimdMultAcc            0      0.00%     87.32% # Class of executed instruction
system.switch_cpus0.op_class::SimdShift          9872      0.39%     87.72% # Class of executed instruction
system.switch_cpus0.op_class::SimdShiftAcc            0      0.00%     87.72% # Class of executed instruction
system.switch_cpus0.op_class::SimdDiv               0      0.00%     87.72% # Class of executed instruction
system.switch_cpus0.op_class::SimdSqrt              0      0.00%     87.72% # Class of executed instruction
system.switch_cpus0.op_class::SimdFloatAdd            0      0.00%     87.72% # Class of executed instruction
system.switch_cpus0.op_class::SimdFloatAlu            0      0.00%     87.72% # Class of executed instruction
system.switch_cpus0.op_class::SimdFloatCmp            0      0.00%     87.72% # Class of executed instruction
system.switch_cpus0.op_class::SimdFloatCvt           18      0.00%     87.72% # Class of executed instruction
system.switch_cpus0.op_class::SimdFloatDiv            0      0.00%     87.72% # Class of executed instruction
system.switch_cpus0.op_class::SimdFloatMisc            0      0.00%     87.72% # Class of executed instruction
system.switch_cpus0.op_class::SimdFloatMult            0      0.00%     87.72% # Class of executed instruction
system.switch_cpus0.op_class::SimdFloatMultAcc            0      0.00%     87.72% # Class of executed instruction
system.switch_cpus0.op_class::SimdFloatSqrt            0      0.00%     87.72% # Class of executed instruction
system.switch_cpus0.op_class::SimdReduceAdd            0      0.00%     87.72% # Class of executed instruction
system.switch_cpus0.op_class::SimdReduceAlu            0      0.00%     87.72% # Class of executed instruction
system.switch_cpus0.op_class::SimdReduceCmp            0      0.00%     87.72% # Class of executed instruction
system.switch_cpus0.op_class::SimdFloatReduceAdd            0      0.00%     87.72% # Class of executed instruction
system.switch_cpus0.op_class::SimdFloatReduceCmp            0      0.00%     87.72% # Class of executed instruction
system.switch_cpus0.op_class::SimdAes               0      0.00%     87.72% # Class of executed instruction
system.switch_cpus0.op_class::SimdAesMix            0      0.00%     87.72% # Class of executed instruction
system.switch_cpus0.op_class::SimdSha1Hash            0      0.00%     87.72% # Class of executed instruction
system.switch_cpus0.op_class::SimdSha1Hash2            0      0.00%     87.72% # Class of executed instruction
system.switch_cpus0.op_class::SimdSha256Hash            0      0.00%     87.72% # Class of executed instruction
system.switch_cpus0.op_class::SimdSha256Hash2            0      0.00%     87.72% # Class of executed instruction
system.switch_cpus0.op_class::SimdShaSigma2            0      0.00%     87.72% # Class of executed instruction
system.switch_cpus0.op_class::SimdShaSigma3            0      0.00%     87.72% # Class of executed instruction
system.switch_cpus0.op_class::SimdPredAlu            0      0.00%     87.72% # Class of executed instruction
system.switch_cpus0.op_class::MemRead          202379      8.09%     95.81% # Class of executed instruction
system.switch_cpus0.op_class::MemWrite          38745      1.55%     97.36% # Class of executed instruction
system.switch_cpus0.op_class::FloatMemRead        65526      2.62%     99.98% # Class of executed instruction
system.switch_cpus0.op_class::FloatMemWrite          516      0.02%    100.00% # Class of executed instruction
system.switch_cpus0.op_class::IprAccess             0      0.00%    100.00% # Class of executed instruction
system.switch_cpus0.op_class::InstPrefetch            0      0.00%    100.00% # Class of executed instruction
system.switch_cpus0.op_class::total           2500859                       # Class of executed instruction
system.switch_cpus1.Branches                   201540                       # Number of branches fetched
system.switch_cpus1.committedInsts             896642                       # Number of instructions committed
system.switch_cpus1.committedOps              1814581                       # Number of ops (including micro ops) committed
system.switch_cpus1.dtb.rdAccesses             261845                       # TLB accesses on read requests
system.switch_cpus1.dtb.rdMisses                   40                       # TLB misses on read requests
system.switch_cpus1.dtb.wrAccesses             191271                       # TLB accesses on write requests
system.switch_cpus1.dtb.wrMisses                    3                       # TLB misses on write requests
system.switch_cpus1.idle_fraction            0.000000                       # Percentage of idle cycles
system.switch_cpus1.itb.rdAccesses                  0                       # TLB accesses on read requests
system.switch_cpus1.itb.rdMisses                    0                       # TLB misses on read requests
system.switch_cpus1.itb.wrAccesses            1136801                       # TLB accesses on write requests
system.switch_cpus1.itb.wrMisses                   27                       # TLB misses on write requests
system.switch_cpus1.not_idle_fraction        1.000000                       # Percentage of non-idle cycles
system.switch_cpus1.numCycles                 5170886                       # number of cpu cycles simulated
system.switch_cpus1.numWorkItemsCompleted            0                       # number of work items this cpu completed
system.switch_cpus1.numWorkItemsStarted             0                       # number of work items this cpu started
system.switch_cpus1.num_busy_cycles      5170885.504207                       # Number of busy cycles
system.switch_cpus1.num_cc_register_reads       750930                       # number of times the CC registers were read
system.switch_cpus1.num_cc_register_writes       402762                       # number of times the CC registers were written
system.switch_cpus1.num_conditional_control_insts        91816                       # number of instructions that are conditional controls
system.switch_cpus1.num_fp_alu_accesses         14779                       # Number of float alu accesses
system.switch_cpus1.num_fp_insts                14779                       # number of float instructions
system.switch_cpus1.num_fp_register_reads        24809                       # number of times the floating registers were read
system.switch_cpus1.num_fp_register_writes        12999                       # number of times the floating registers were written
system.switch_cpus1.num_func_calls              95073                       # number of times a function call or return occured
system.switch_cpus1.num_idle_cycles          0.495793                       # Number of idle cycles
system.switch_cpus1.num_int_alu_accesses      1795931                       # Number of integer alu accesses
system.switch_cpus1.num_int_insts             1795931                       # number of integer instructions
system.switch_cpus1.num_int_register_reads      3807399                       # number of times the integer registers were read
system.switch_cpus1.num_int_register_writes      1408731                       # number of times the integer registers were written
system.switch_cpus1.num_load_insts             261843                       # Number of load instructions
system.switch_cpus1.num_mem_refs               453112                       # number of memory refs
system.switch_cpus1.num_store_insts            191269                       # Number of store instructions
system.switch_cpus1.num_vec_alu_accesses            0                       # Number of vector alu accesses
system.switch_cpus1.num_vec_insts                   0                       # number of vector instructions
system.switch_cpus1.num_vec_register_reads            0                       # number of times the vector registers were read
system.switch_cpus1.num_vec_register_writes            0                       # number of times the vector registers were written
system.switch_cpus1.op_class::No_OpClass         6034      0.33%      0.33% # Class of executed instruction
system.switch_cpus1.op_class::IntAlu          1341895     73.95%     74.28% # Class of executed instruction
system.switch_cpus1.op_class::IntMult             837      0.05%     74.33% # Class of executed instruction
system.switch_cpus1.op_class::IntDiv             2065      0.11%     74.44% # Class of executed instruction
system.switch_cpus1.op_class::FloatAdd            589      0.03%     74.48% # Class of executed instruction
system.switch_cpus1.op_class::FloatCmp              0      0.00%     74.48% # Class of executed instruction
system.switch_cpus1.op_class::FloatCvt              0      0.00%     74.48% # Class of executed instruction
system.switch_cpus1.op_class::FloatMult             0      0.00%     74.48% # Class of executed instruction
system.switch_cpus1.op_class::FloatMultAcc            0      0.00%     74.48% # Class of executed instruction
system.switch_cpus1.op_class::FloatDiv              0      0.00%     74.48% # Class of executed instruction
system.switch_cpus1.op_class::FloatMisc             0      0.00%     74.48% # Class of executed instruction
system.switch_cpus1.op_class::FloatSqrt             0      0.00%     74.48% # Class of executed instruction
system.switch_cpus1.op_class::SimdAdd               0      0.00%     74.48% # Class of executed instruction
system.switch_cpus1.op_class::SimdAddAcc            0      0.00%     74.48% # Class of executed instruction
system.switch_cpus1.op_class::SimdAlu            2364      0.13%     74.61% # Class of executed instruction
system.switch_cpus1.op_class::SimdCmp               0      0.00%     74.61% # Class of executed instruction
system.switch_cpus1.op_class::SimdCvt            2370      0.13%     74.74% # Class of executed instruction
system.switch_cpus1.op_class::SimdMisc           5315      0.29%     75.03% # Class of executed instruction
system.switch_cpus1.op_class::SimdMult              0      0.00%     75.03% # Class of executed instruction
system.switch_cpus1.op_class::SimdMultAcc            0      0.00%     75.03% # Class of executed instruction
system.switch_cpus1.op_class::SimdShift             0      0.00%     75.03% # Class of executed instruction
system.switch_cpus1.op_class::SimdShiftAcc            0      0.00%     75.03% # Class of executed instruction
system.switch_cpus1.op_class::SimdDiv               0      0.00%     75.03% # Class of executed instruction
system.switch_cpus1.op_class::SimdSqrt              0      0.00%     75.03% # Class of executed instruction
system.switch_cpus1.op_class::SimdFloatAdd            0      0.00%     75.03% # Class of executed instruction
system.switch_cpus1.op_class::SimdFloatAlu            0      0.00%     75.03% # Class of executed instruction
system.switch_cpus1.op_class::SimdFloatCmp            0      0.00%     75.03% # Class of executed instruction
system.switch_cpus1.op_class::SimdFloatCvt            0      0.00%     75.03% # Class of executed instruction
system.switch_cpus1.op_class::SimdFloatDiv            0      0.00%     75.03% # Class of executed instruction
system.switch_cpus1.op_class::SimdFloatMisc            0      0.00%     75.03% # Class of executed instruction
system.switch_cpus1.op_class::SimdFloatMult            0      0.00%     75.03% # Class of executed instruction
system.switch_cpus1.op_class::SimdFloatMultAcc            0      0.00%     75.03% # Class of executed instruction
system.switch_cpus1.op_class::SimdFloatSqrt            0      0.00%     75.03% # Class of executed instruction
system.switch_cpus1.op_class::SimdReduceAdd            0      0.00%     75.03% # Class of executed instruction
system.switch_cpus1.op_class::SimdReduceAlu            0      0.00%     75.03% # Class of executed instruction
system.switch_cpus1.op_class::SimdReduceCmp            0      0.00%     75.03% # Class of executed instruction
system.switch_cpus1.op_class::SimdFloatReduceAdd            0      0.00%     75.03% # Class of executed instruction
system.switch_cpus1.op_class::SimdFloatReduceCmp            0      0.00%     75.03% # Class of executed instruction
system.switch_cpus1.op_class::SimdAes               0      0.00%     75.03% # Class of executed instruction
system.switch_cpus1.op_class::SimdAesMix            0      0.00%     75.03% # Class of executed instruction
system.switch_cpus1.op_class::SimdSha1Hash            0      0.00%     75.03% # Class of executed instruction
system.switch_cpus1.op_class::SimdSha1Hash2            0      0.00%     75.03% # Class of executed instruction
system.switch_cpus1.op_class::SimdSha256Hash            0      0.00%     75.03% # Class of executed instruction
system.switch_cpus1.op_class::SimdSha256Hash2            0      0.00%     75.03% # Class of executed instruction
system.switch_cpus1.op_class::SimdShaSigma2            0      0.00%     75.03% # Class of executed instruction
system.switch_cpus1.op_class::SimdShaSigma3            0      0.00%     75.03% # Class of executed instruction
system.switch_cpus1.op_class::SimdPredAlu            0      0.00%     75.03% # Class of executed instruction
system.switch_cpus1.op_class::MemRead          260057     14.33%     89.36% # Class of executed instruction
system.switch_cpus1.op_class::MemWrite         190681     10.51%     99.87% # Class of executed instruction
system.switch_cpus1.op_class::FloatMemRead         1786      0.10%     99.97% # Class of executed instruction
system.switch_cpus1.op_class::FloatMemWrite          588      0.03%    100.00% # Class of executed instruction
system.switch_cpus1.op_class::IprAccess             0      0.00%    100.00% # Class of executed instruction
system.switch_cpus1.op_class::InstPrefetch            0      0.00%    100.00% # Class of executed instruction
system.switch_cpus1.op_class::total           1814581                       # Class of executed instruction
system.switch_cpus_10.branchPred.BTBCorrect            0                       # Number of correct BTB predictions (this stat may not work properly.
system.switch_cpus_10.branchPred.BTBHitPct     0.000000                       # BTB Hit Percentage
system.switch_cpus_10.branchPred.BTBHits            0                       # Number of BTB hits
system.switch_cpus_10.branchPred.BTBLookups     21351467                       # Number of BTB lookups
system.switch_cpus_10.branchPred.RASInCorrect           11                       # Number of incorrect RAS predictions.
system.switch_cpus_10.branchPred.condIncorrect      1449174                       # Number of conditional branches incorrect
system.switch_cpus_10.branchPred.condPredicted     22999615                       # Number of conditional branches predicted
system.switch_cpus_10.branchPred.indirectHits      8068872                       # Number of indirect target hits.
system.switch_cpus_10.branchPred.indirectLookups     21351467                       # Number of indirect predictor lookups.
system.switch_cpus_10.branchPred.indirectMisses     13282595                       # Number of indirect misses.
system.switch_cpus_10.branchPred.lookups     24710743                       # Number of BP lookups
system.switch_cpus_10.branchPred.usedRAS       754632                       # Number of times the RAS was used to get a target.
system.switch_cpus_10.branchPredindirectMispredicted      1018491                       # Number of mispredicted indirect branches.
system.switch_cpus_10.cc_regfile_reads      100011151                       # number of cc regfile reads
system.switch_cpus_10.cc_regfile_writes      41585192                       # number of cc regfile writes
system.switch_cpus_10.commit.amos                   0                       # Number of atomic instructions committed
system.switch_cpus_10.commit.branchMispredicts      1449174                       # The number of times a branch was mispredicted
system.switch_cpus_10.commit.branches        14584540                       # Number of branches committed
system.switch_cpus_10.commit.bw_lim_events      6509174                       # number cycles where commit BW limit reached
system.switch_cpus_10.commit.commitNonSpecStalls          189                       # The number of times commit has been forced to stall to communicate backwards
system.switch_cpus_10.commit.commitSquashedInsts     50277475                       # The number of squashed insts skipped by commit
system.switch_cpus_10.commit.committedInsts     50000002                       # Number of instructions committed
system.switch_cpus_10.commit.committedOps    113620108                       # Number of ops (including micro ops) committed
system.switch_cpus_10.commit.committed_per_cycle::samples     49971223                       # Number of insts commited each cycle
system.switch_cpus_10.commit.committed_per_cycle::mean     2.273711                       # Number of insts commited each cycle
system.switch_cpus_10.commit.committed_per_cycle::stdev     2.654926                       # Number of insts commited each cycle
system.switch_cpus_10.commit.committed_per_cycle::underflows            0      0.00%      0.00% # Number of insts commited each cycle
system.switch_cpus_10.commit.committed_per_cycle::0     17443637     34.91%     34.91% # Number of insts commited each cycle
system.switch_cpus_10.commit.committed_per_cycle::1      8384420     16.78%     51.69% # Number of insts commited each cycle
system.switch_cpus_10.commit.committed_per_cycle::2      7449998     14.91%     66.59% # Number of insts commited each cycle
system.switch_cpus_10.commit.committed_per_cycle::3      5757947     11.52%     78.12% # Number of insts commited each cycle
system.switch_cpus_10.commit.committed_per_cycle::4      2588188      5.18%     83.30% # Number of insts commited each cycle
system.switch_cpus_10.commit.committed_per_cycle::5       744896      1.49%     84.79% # Number of insts commited each cycle
system.switch_cpus_10.commit.committed_per_cycle::6       739514      1.48%     86.27% # Number of insts commited each cycle
system.switch_cpus_10.commit.committed_per_cycle::7       353449      0.71%     86.97% # Number of insts commited each cycle
system.switch_cpus_10.commit.committed_per_cycle::8      6509174     13.03%    100.00% # Number of insts commited each cycle
system.switch_cpus_10.commit.committed_per_cycle::overflows            0      0.00%    100.00% # Number of insts commited each cycle
system.switch_cpus_10.commit.committed_per_cycle::min_value            0                       # Number of insts commited each cycle
system.switch_cpus_10.commit.committed_per_cycle::max_value            8                       # Number of insts commited each cycle
system.switch_cpus_10.commit.committed_per_cycle::total     49971223                       # Number of insts commited each cycle
system.switch_cpus_10.commit.fp_insts         7862672                       # Number of committed floating point instructions.
system.switch_cpus_10.commit.function_calls       592693                       # Number of function calls committed.
system.switch_cpus_10.commit.int_insts      107426394                       # Number of committed integer instructions.
system.switch_cpus_10.commit.loads           10493822                       # Number of loads committed
system.switch_cpus_10.commit.membars                0                       # Number of memory barriers committed
system.switch_cpus_10.commit.op_class_0::No_OpClass      1251941      1.10%      1.10% # Class of committed instruction
system.switch_cpus_10.commit.op_class_0::IntAlu     92928521     81.79%     82.89% # Class of committed instruction
system.switch_cpus_10.commit.op_class_0::IntMult       476584      0.42%     83.31% # Class of committed instruction
system.switch_cpus_10.commit.op_class_0::IntDiv        16050      0.01%     83.32% # Class of committed instruction
system.switch_cpus_10.commit.op_class_0::FloatAdd        27353      0.02%     83.35% # Class of committed instruction
system.switch_cpus_10.commit.op_class_0::FloatCmp            0      0.00%     83.35% # Class of committed instruction
system.switch_cpus_10.commit.op_class_0::FloatCvt            0      0.00%     83.35% # Class of committed instruction
system.switch_cpus_10.commit.op_class_0::FloatMult            0      0.00%     83.35% # Class of committed instruction
system.switch_cpus_10.commit.op_class_0::FloatMultAcc            0      0.00%     83.35% # Class of committed instruction
system.switch_cpus_10.commit.op_class_0::FloatDiv            0      0.00%     83.35% # Class of committed instruction
system.switch_cpus_10.commit.op_class_0::FloatMisc            0      0.00%     83.35% # Class of committed instruction
system.switch_cpus_10.commit.op_class_0::FloatSqrt            0      0.00%     83.35% # Class of committed instruction
system.switch_cpus_10.commit.op_class_0::SimdAdd       476694      0.42%     83.77% # Class of committed instruction
system.switch_cpus_10.commit.op_class_0::SimdAddAcc            0      0.00%     83.77% # Class of committed instruction
system.switch_cpus_10.commit.op_class_0::SimdAlu      2413005      2.12%     85.89% # Class of committed instruction
system.switch_cpus_10.commit.op_class_0::SimdCmp         5664      0.00%     85.90% # Class of committed instruction
system.switch_cpus_10.commit.op_class_0::SimdCvt      1693068      1.49%     87.39% # Class of committed instruction
system.switch_cpus_10.commit.op_class_0::SimdMisc      1217052      1.07%     88.46% # Class of committed instruction
system.switch_cpus_10.commit.op_class_0::SimdMult            0      0.00%     88.46% # Class of committed instruction
system.switch_cpus_10.commit.op_class_0::SimdMultAcc            0      0.00%     88.46% # Class of committed instruction
system.switch_cpus_10.commit.op_class_0::SimdShift       264977      0.23%     88.69% # Class of committed instruction
system.switch_cpus_10.commit.op_class_0::SimdShiftAcc            0      0.00%     88.69% # Class of committed instruction
system.switch_cpus_10.commit.op_class_0::SimdDiv            0      0.00%     88.69% # Class of committed instruction
system.switch_cpus_10.commit.op_class_0::SimdSqrt            0      0.00%     88.69% # Class of committed instruction
system.switch_cpus_10.commit.op_class_0::SimdFloatAdd            0      0.00%     88.69% # Class of committed instruction
system.switch_cpus_10.commit.op_class_0::SimdFloatAlu            0      0.00%     88.69% # Class of committed instruction
system.switch_cpus_10.commit.op_class_0::SimdFloatCmp            0      0.00%     88.69% # Class of committed instruction
system.switch_cpus_10.commit.op_class_0::SimdFloatCvt           88      0.00%     88.69% # Class of committed instruction
system.switch_cpus_10.commit.op_class_0::SimdFloatDiv            0      0.00%     88.69% # Class of committed instruction
system.switch_cpus_10.commit.op_class_0::SimdFloatMisc            0      0.00%     88.69% # Class of committed instruction
system.switch_cpus_10.commit.op_class_0::SimdFloatMult            0      0.00%     88.69% # Class of committed instruction
system.switch_cpus_10.commit.op_class_0::SimdFloatMultAcc            0      0.00%     88.69% # Class of committed instruction
system.switch_cpus_10.commit.op_class_0::SimdFloatSqrt            0      0.00%     88.69% # Class of committed instruction
system.switch_cpus_10.commit.op_class_0::SimdReduceAdd            0      0.00%     88.69% # Class of committed instruction
system.switch_cpus_10.commit.op_class_0::SimdReduceAlu            0      0.00%     88.69% # Class of committed instruction
system.switch_cpus_10.commit.op_class_0::SimdReduceCmp            0      0.00%     88.69% # Class of committed instruction
system.switch_cpus_10.commit.op_class_0::SimdFloatReduceAdd            0      0.00%     88.69% # Class of committed instruction
system.switch_cpus_10.commit.op_class_0::SimdFloatReduceCmp            0      0.00%     88.69% # Class of committed instruction
system.switch_cpus_10.commit.op_class_0::SimdAes            0      0.00%     88.69% # Class of committed instruction
system.switch_cpus_10.commit.op_class_0::SimdAesMix            0      0.00%     88.69% # Class of committed instruction
system.switch_cpus_10.commit.op_class_0::SimdSha1Hash            0      0.00%     88.69% # Class of committed instruction
system.switch_cpus_10.commit.op_class_0::SimdSha1Hash2            0      0.00%     88.69% # Class of committed instruction
system.switch_cpus_10.commit.op_class_0::SimdSha256Hash            0      0.00%     88.69% # Class of committed instruction
system.switch_cpus_10.commit.op_class_0::SimdSha256Hash2            0      0.00%     88.69% # Class of committed instruction
system.switch_cpus_10.commit.op_class_0::SimdShaSigma2            0      0.00%     88.69% # Class of committed instruction
system.switch_cpus_10.commit.op_class_0::SimdShaSigma3            0      0.00%     88.69% # Class of committed instruction
system.switch_cpus_10.commit.op_class_0::SimdPredAlu            0      0.00%     88.69% # Class of committed instruction
system.switch_cpus_10.commit.op_class_0::MemRead      8769465      7.72%     96.41% # Class of committed instruction
system.switch_cpus_10.commit.op_class_0::MemWrite      2326304      2.05%     98.46% # Class of committed instruction
system.switch_cpus_10.commit.op_class_0::FloatMemRead      1724357      1.52%     99.97% # Class of committed instruction
system.switch_cpus_10.commit.op_class_0::FloatMemWrite        28985      0.03%    100.00% # Class of committed instruction
system.switch_cpus_10.commit.op_class_0::IprAccess            0      0.00%    100.00% # Class of committed instruction
system.switch_cpus_10.commit.op_class_0::InstPrefetch            0      0.00%    100.00% # Class of committed instruction
system.switch_cpus_10.commit.op_class_0::total    113620108                       # Class of committed instruction
system.switch_cpus_10.commit.refs            12849111                       # Number of memory references committed
system.switch_cpus_10.commit.swp_count              0                       # Number of s/w prefetches committed
system.switch_cpus_10.commit.vec_insts              0                       # Number of committed Vector instructions.
system.switch_cpus_10.committedInsts         50000002                       # Number of Instructions Simulated
system.switch_cpus_10.committedOps          113620108                       # Number of Ops (including micro ops) Simulated
system.switch_cpus_10.cpi                    1.148126                       # CPI: Cycles Per Instruction
system.switch_cpus_10.cpi_total              1.148126                       # CPI: Total CPI of All Threads
system.switch_cpus_10.decode.BlockedCycles      9895625                       # Number of cycles decode is blocked
system.switch_cpus_10.decode.DecodedInsts    182551214                       # Number of instructions handled by decode
system.switch_cpus_10.decode.IdleCycles      18644977                       # Number of cycles decode is idle
system.switch_cpus_10.decode.RunCycles       25548899                       # Number of cycles decode is running
system.switch_cpus_10.decode.SquashCycles      1454458                       # Number of cycles decode is squashing
system.switch_cpus_10.decode.UnblockCycles      1812628                       # Number of cycles decode is unblocking
system.switch_cpus_10.dtb.rdAccesses         14001102                       # TLB accesses on read requests
system.switch_cpus_10.dtb.rdMisses               1962                       # TLB misses on read requests
system.switch_cpus_10.dtb.wrAccesses          3142373                       # TLB accesses on write requests
system.switch_cpus_10.dtb.wrMisses                201                       # TLB misses on write requests
system.switch_cpus_10.fetch.Branches         24710743                       # Number of branches that fetch encountered
system.switch_cpus_10.fetch.CacheLines       10197123                       # Number of cache lines fetched
system.switch_cpus_10.fetch.Cycles           35170243                       # Number of cycles fetch has run and was not squashing or blocked
system.switch_cpus_10.fetch.IcacheSquashes       521529                       # Number of outstanding Icache misses that were squashed
system.switch_cpus_10.fetch.IcacheWaitRetryStallCycles          557                       # Number of stall cycles due to full MSHR
system.switch_cpus_10.fetch.Insts            84697453                       # Number of instructions fetch has processed
system.switch_cpus_10.fetch.MiscStallCycles         1817                       # Number of cycles fetch has spent waiting on interrupts, or bad addresses, or out of MSHRs
system.switch_cpus_10.fetch.SquashCycles      2908916                       # Number of cycles fetch has spent squashing
system.switch_cpus_10.fetch.branchRate       0.430454                       # Number of branch fetches per cycle
system.switch_cpus_10.fetch.icacheStallCycles     20729523                       # Number of cycles fetch is stalled on an Icache miss
system.switch_cpus_10.fetch.predictedBranches      8823504                       # Number of branches that fetch has predicted taken
system.switch_cpus_10.fetch.rate             1.475404                       # Number of inst fetches per cycle
system.switch_cpus_10.fetch.rateDist::samples     57356598                       # Number of instructions fetched each cycle (Total)
system.switch_cpus_10.fetch.rateDist::mean     3.353223                       # Number of instructions fetched each cycle (Total)
system.switch_cpus_10.fetch.rateDist::stdev     3.622350                       # Number of instructions fetched each cycle (Total)
system.switch_cpus_10.fetch.rateDist::underflows            0      0.00%      0.00% # Number of instructions fetched each cycle (Total)
system.switch_cpus_10.fetch.rateDist::0      26710216     46.57%     46.57% # Number of instructions fetched each cycle (Total)
system.switch_cpus_10.fetch.rateDist::1       2947623      5.14%     51.71% # Number of instructions fetched each cycle (Total)
system.switch_cpus_10.fetch.rateDist::2        822189      1.43%     53.14% # Number of instructions fetched each cycle (Total)
system.switch_cpus_10.fetch.rateDist::3       2275066      3.97%     57.11% # Number of instructions fetched each cycle (Total)
system.switch_cpus_10.fetch.rateDist::4       1954103      3.41%     60.51% # Number of instructions fetched each cycle (Total)
system.switch_cpus_10.fetch.rateDist::5       1490006      2.60%     63.11% # Number of instructions fetched each cycle (Total)
system.switch_cpus_10.fetch.rateDist::6       1211316      2.11%     65.22% # Number of instructions fetched each cycle (Total)
system.switch_cpus_10.fetch.rateDist::7       1190710      2.08%     67.30% # Number of instructions fetched each cycle (Total)
system.switch_cpus_10.fetch.rateDist::8      18755369     32.70%    100.00% # Number of instructions fetched each cycle (Total)
system.switch_cpus_10.fetch.rateDist::overflows            0      0.00%    100.00% # Number of instructions fetched each cycle (Total)
system.switch_cpus_10.fetch.rateDist::min_value            0                       # Number of instructions fetched each cycle (Total)
system.switch_cpus_10.fetch.rateDist::max_value            8                       # Number of instructions fetched each cycle (Total)
system.switch_cpus_10.fetch.rateDist::total     57356598                       # Number of instructions fetched each cycle (Total)
system.switch_cpus_10.fp_regfile_reads       18686574                       # number of floating regfile reads
system.switch_cpus_10.fp_regfile_writes      10249721                       # number of floating regfile writes
system.switch_cpus_10.idleCycles                49682                       # Total number of cycles that the CPU has spent unscheduled due to idling
system.switch_cpus_10.iew.branchMispredicts      1782892                       # Number of branch mispredicts detected at execute
system.switch_cpus_10.iew.exec_branches      16442783                       # Number of branches executed
system.switch_cpus_10.iew.exec_nop                  0                       # number of nop insts executed
system.switch_cpus_10.iew.exec_rate          2.480208                       # Inst execution rate
system.switch_cpus_10.iew.exec_refs          17075981                       # number of memory reference insts executed
system.switch_cpus_10.iew.exec_stores         3142276                       # Number of stores executed
system.switch_cpus_10.iew.exec_swp                  0                       # number of swp insts executed
system.switch_cpus_10.iew.iewBlockCycles      6072594                       # Number of cycles IEW is blocking
system.switch_cpus_10.iew.iewDispLoadInsts     15875155                       # Number of dispatched load instructions
system.switch_cpus_10.iew.iewDispNonSpecInsts           14                       # Number of dispatched non-speculative instructions
system.switch_cpus_10.iew.iewDispSquashedInsts       427033                       # Number of squashed instructions skipped by dispatch
system.switch_cpus_10.iew.iewDispStoreInsts      3636123                       # Number of dispatched store instructions
system.switch_cpus_10.iew.iewDispatchedInsts    164054064                       # Number of instructions dispatched to IQ
system.switch_cpus_10.iew.iewExecLoadInsts     13933705                       # Number of load instructions executed
system.switch_cpus_10.iew.iewExecSquashedInsts      2868878                       # Number of squashed instructions skipped in execute
system.switch_cpus_10.iew.iewExecutedInsts    142379520                       # Number of executed instructions
system.switch_cpus_10.iew.iewIQFullEvents         1898                       # Number of times the IQ has become full, causing a stall
system.switch_cpus_10.iew.iewIdleCycles             0                       # Number of cycles IEW is idle
system.switch_cpus_10.iew.iewLSQFullEvents       201618                       # Number of times the LSQ has become full, causing a stall
system.switch_cpus_10.iew.iewSquashCycles      1454458                       # Number of cycles IEW is squashing
system.switch_cpus_10.iew.iewUnblockCycles       203598                       # Number of cycles IEW is unblocking
system.switch_cpus_10.iew.lsq.thread0.blockedLoads            0                       # Number of blocked loads due to partial load-store forwarding
system.switch_cpus_10.iew.lsq.thread0.cacheBlocked         1119                       # Number of times an access to memory failed due to the cache being blocked
system.switch_cpus_10.iew.lsq.thread0.forwLoads       232125                       # Number of loads that had data forwarded from stores
system.switch_cpus_10.iew.lsq.thread0.ignoredResponses         3632                       # Number of memory responses ignored because the instruction is squashed
system.switch_cpus_10.iew.lsq.thread0.invAddrLoads            0                       # Number of loads ignored due to an invalid address
system.switch_cpus_10.iew.lsq.thread0.invAddrSwpfs            0                       # Number of software prefetches ignored due to an invalid address
system.switch_cpus_10.iew.lsq.thread0.memOrderViolation          199                       # Number of memory ordering violations
system.switch_cpus_10.iew.lsq.thread0.rescheduledLoads          342                       # Number of loads that were rescheduled
system.switch_cpus_10.iew.lsq.thread0.squashedLoads      5381329                       # Number of loads squashed
system.switch_cpus_10.iew.lsq.thread0.squashedStores      1280833                       # Number of stores squashed
system.switch_cpus_10.iew.memOrderViolationEvents          199                       # Number of memory order violations
system.switch_cpus_10.iew.predictedNotTakenIncorrect      1445847                       # Number of branches that were predicted not taken incorrectly
system.switch_cpus_10.iew.predictedTakenIncorrect       337045                       # Number of branches that were predicted taken incorrectly
system.switch_cpus_10.iew.wb_consumers      189771550                       # num instructions consuming a value
system.switch_cpus_10.iew.wb_count          140611838                       # cumulative count of insts written-back
system.switch_cpus_10.iew.wb_fanout          0.556707                       # average fanout of values written-back
system.switch_cpus_10.iew.wb_producers      105647089                       # num instructions producing a value
system.switch_cpus_10.iew.wb_rate            2.449416                       # insts written-back per cycle
system.switch_cpus_10.iew.wb_sent           140966020                       # cumulative count of insts sent to commit
system.switch_cpus_10.int_regfile_reads     183131828                       # number of integer regfile reads
system.switch_cpus_10.int_regfile_writes    110219221                       # number of integer regfile writes
system.switch_cpus_10.ipc                    0.870985                       # IPC: Instructions Per Cycle
system.switch_cpus_10.ipc_total              0.870985                       # IPC: Total IPC of All Threads
system.switch_cpus_10.iq.FU_type_0::No_OpClass      2711426      1.87%      1.87% # Type of FU issued
system.switch_cpus_10.iq.FU_type_0::IntAlu    115181356     79.30%     81.17% # Type of FU issued
system.switch_cpus_10.iq.FU_type_0::IntMult       569060      0.39%     81.56% # Type of FU issued
system.switch_cpus_10.iq.FU_type_0::IntDiv        19338      0.01%     81.57% # Type of FU issued
system.switch_cpus_10.iq.FU_type_0::FloatAdd       562970      0.39%     81.96% # Type of FU issued
system.switch_cpus_10.iq.FU_type_0::FloatCmp            0      0.00%     81.96% # Type of FU issued
system.switch_cpus_10.iq.FU_type_0::FloatCvt            0      0.00%     81.96% # Type of FU issued
system.switch_cpus_10.iq.FU_type_0::FloatMult            0      0.00%     81.96% # Type of FU issued
system.switch_cpus_10.iq.FU_type_0::FloatMultAcc            0      0.00%     81.96% # Type of FU issued
system.switch_cpus_10.iq.FU_type_0::FloatDiv            0      0.00%     81.96% # Type of FU issued
system.switch_cpus_10.iq.FU_type_0::FloatMisc            0      0.00%     81.96% # Type of FU issued
system.switch_cpus_10.iq.FU_type_0::FloatSqrt            0      0.00%     81.96% # Type of FU issued
system.switch_cpus_10.iq.FU_type_0::SimdAdd       732657      0.50%     82.46% # Type of FU issued
system.switch_cpus_10.iq.FU_type_0::SimdAddAcc            0      0.00%     82.46% # Type of FU issued
system.switch_cpus_10.iq.FU_type_0::SimdAlu      3207761      2.21%     84.67% # Type of FU issued
system.switch_cpus_10.iq.FU_type_0::SimdCmp        11947      0.01%     84.68% # Type of FU issued
system.switch_cpus_10.iq.FU_type_0::SimdCvt      2412457      1.66%     86.34% # Type of FU issued
system.switch_cpus_10.iq.FU_type_0::SimdMisc      1439433      0.99%     87.33% # Type of FU issued
system.switch_cpus_10.iq.FU_type_0::SimdMult            0      0.00%     87.33% # Type of FU issued
system.switch_cpus_10.iq.FU_type_0::SimdMultAcc            0      0.00%     87.33% # Type of FU issued
system.switch_cpus_10.iq.FU_type_0::SimdShift       654513      0.45%     87.78% # Type of FU issued
system.switch_cpus_10.iq.FU_type_0::SimdShiftAcc            0      0.00%     87.78% # Type of FU issued
system.switch_cpus_10.iq.FU_type_0::SimdDiv            0      0.00%     87.78% # Type of FU issued
system.switch_cpus_10.iq.FU_type_0::SimdSqrt            0      0.00%     87.78% # Type of FU issued
system.switch_cpus_10.iq.FU_type_0::SimdFloatAdd            0      0.00%     87.78% # Type of FU issued
system.switch_cpus_10.iq.FU_type_0::SimdFloatAlu            0      0.00%     87.78% # Type of FU issued
system.switch_cpus_10.iq.FU_type_0::SimdFloatCmp            0      0.00%     87.78% # Type of FU issued
system.switch_cpus_10.iq.FU_type_0::SimdFloatCvt          133      0.00%     87.78% # Type of FU issued
system.switch_cpus_10.iq.FU_type_0::SimdFloatDiv            0      0.00%     87.78% # Type of FU issued
system.switch_cpus_10.iq.FU_type_0::SimdFloatMisc            0      0.00%     87.78% # Type of FU issued
system.switch_cpus_10.iq.FU_type_0::SimdFloatMult            0      0.00%     87.78% # Type of FU issued
system.switch_cpus_10.iq.FU_type_0::SimdFloatMultAcc            0      0.00%     87.78% # Type of FU issued
system.switch_cpus_10.iq.FU_type_0::SimdFloatSqrt            0      0.00%     87.78% # Type of FU issued
system.switch_cpus_10.iq.FU_type_0::SimdReduceAdd            0      0.00%     87.78% # Type of FU issued
system.switch_cpus_10.iq.FU_type_0::SimdReduceAlu            0      0.00%     87.78% # Type of FU issued
system.switch_cpus_10.iq.FU_type_0::SimdReduceCmp            0      0.00%     87.78% # Type of FU issued
system.switch_cpus_10.iq.FU_type_0::SimdFloatReduceAdd            0      0.00%     87.78% # Type of FU issued
system.switch_cpus_10.iq.FU_type_0::SimdFloatReduceCmp            0      0.00%     87.78% # Type of FU issued
system.switch_cpus_10.iq.FU_type_0::SimdAes            0      0.00%     87.78% # Type of FU issued
system.switch_cpus_10.iq.FU_type_0::SimdAesMix            0      0.00%     87.78% # Type of FU issued
system.switch_cpus_10.iq.FU_type_0::SimdSha1Hash            0      0.00%     87.78% # Type of FU issued
system.switch_cpus_10.iq.FU_type_0::SimdSha1Hash2            0      0.00%     87.78% # Type of FU issued
system.switch_cpus_10.iq.FU_type_0::SimdSha256Hash            0      0.00%     87.78% # Type of FU issued
system.switch_cpus_10.iq.FU_type_0::SimdSha256Hash2            0      0.00%     87.78% # Type of FU issued
system.switch_cpus_10.iq.FU_type_0::SimdShaSigma2            0      0.00%     87.78% # Type of FU issued
system.switch_cpus_10.iq.FU_type_0::SimdShaSigma3            0      0.00%     87.78% # Type of FU issued
system.switch_cpus_10.iq.FU_type_0::SimdPredAlu            0      0.00%     87.78% # Type of FU issued
system.switch_cpus_10.iq.FU_type_0::MemRead     10776414      7.42%     95.20% # Type of FU issued
system.switch_cpus_10.iq.FU_type_0::MemWrite      3169607      2.18%     97.38% # Type of FU issued
system.switch_cpus_10.iq.FU_type_0::FloatMemRead      3690655      2.54%     99.93% # Type of FU issued
system.switch_cpus_10.iq.FU_type_0::FloatMemWrite       108674      0.07%    100.00% # Type of FU issued
system.switch_cpus_10.iq.FU_type_0::IprAccess            0      0.00%    100.00% # Type of FU issued
system.switch_cpus_10.iq.FU_type_0::InstPrefetch            0      0.00%    100.00% # Type of FU issued
system.switch_cpus_10.iq.FU_type_0::total    145248401                       # Type of FU issued
system.switch_cpus_10.iq.fp_alu_accesses     13257452                       # Number of floating point alu accesses
system.switch_cpus_10.iq.fp_inst_queue_reads     26188311                       # Number of floating instruction queue reads
system.switch_cpus_10.iq.fp_inst_queue_wakeup_accesses     11606899                       # Number of floating instruction queue wakeup accesses
system.switch_cpus_10.iq.fp_inst_queue_writes     23411378                       # Number of floating instruction queue writes
system.switch_cpus_10.iq.fu_busy_cnt          2334467                       # FU busy when requested
system.switch_cpus_10.iq.fu_busy_rate        0.016072                       # FU busy rate (busy events/executed inst)
system.switch_cpus_10.iq.fu_full::No_OpClass            0      0.00%      0.00% # attempts to use FU when none available
system.switch_cpus_10.iq.fu_full::IntAlu      1901786     81.47%     81.47% # attempts to use FU when none available
system.switch_cpus_10.iq.fu_full::IntMult            0      0.00%     81.47% # attempts to use FU when none available
system.switch_cpus_10.iq.fu_full::IntDiv            0      0.00%     81.47% # attempts to use FU when none available
system.switch_cpus_10.iq.fu_full::FloatAdd            0      0.00%     81.47% # attempts to use FU when none available
system.switch_cpus_10.iq.fu_full::FloatCmp            0      0.00%     81.47% # attempts to use FU when none available
system.switch_cpus_10.iq.fu_full::FloatCvt            0      0.00%     81.47% # attempts to use FU when none available
system.switch_cpus_10.iq.fu_full::FloatMult            0      0.00%     81.47% # attempts to use FU when none available
system.switch_cpus_10.iq.fu_full::FloatMultAcc            0      0.00%     81.47% # attempts to use FU when none available
system.switch_cpus_10.iq.fu_full::FloatDiv            0      0.00%     81.47% # attempts to use FU when none available
system.switch_cpus_10.iq.fu_full::FloatMisc            0      0.00%     81.47% # attempts to use FU when none available
system.switch_cpus_10.iq.fu_full::FloatSqrt            0      0.00%     81.47% # attempts to use FU when none available
system.switch_cpus_10.iq.fu_full::SimdAdd           63      0.00%     81.47% # attempts to use FU when none available
system.switch_cpus_10.iq.fu_full::SimdAddAcc            0      0.00%     81.47% # attempts to use FU when none available
system.switch_cpus_10.iq.fu_full::SimdAlu       243905     10.45%     91.92% # attempts to use FU when none available
system.switch_cpus_10.iq.fu_full::SimdCmp           20      0.00%     91.92% # attempts to use FU when none available
system.switch_cpus_10.iq.fu_full::SimdCvt         2978      0.13%     92.04% # attempts to use FU when none available
system.switch_cpus_10.iq.fu_full::SimdMisc        48113      2.06%     94.11% # attempts to use FU when none available
system.switch_cpus_10.iq.fu_full::SimdMult            0      0.00%     94.11% # attempts to use FU when none available
system.switch_cpus_10.iq.fu_full::SimdMultAcc            0      0.00%     94.11% # attempts to use FU when none available
system.switch_cpus_10.iq.fu_full::SimdShift          346      0.01%     94.12% # attempts to use FU when none available
system.switch_cpus_10.iq.fu_full::SimdShiftAcc            0      0.00%     94.12% # attempts to use FU when none available
system.switch_cpus_10.iq.fu_full::SimdDiv            0      0.00%     94.12% # attempts to use FU when none available
system.switch_cpus_10.iq.fu_full::SimdSqrt            0      0.00%     94.12% # attempts to use FU when none available
system.switch_cpus_10.iq.fu_full::SimdFloatAdd            0      0.00%     94.12% # attempts to use FU when none available
system.switch_cpus_10.iq.fu_full::SimdFloatAlu            0      0.00%     94.12% # attempts to use FU when none available
system.switch_cpus_10.iq.fu_full::SimdFloatCmp            0      0.00%     94.12% # attempts to use FU when none available
system.switch_cpus_10.iq.fu_full::SimdFloatCvt            0      0.00%     94.12% # attempts to use FU when none available
system.switch_cpus_10.iq.fu_full::SimdFloatDiv            0      0.00%     94.12% # attempts to use FU when none available
system.switch_cpus_10.iq.fu_full::SimdFloatMisc            0      0.00%     94.12% # attempts to use FU when none available
system.switch_cpus_10.iq.fu_full::SimdFloatMult            0      0.00%     94.12% # attempts to use FU when none available
[...]
system.cpu1.l2cache.ReadSharedReq_mshr_misses::.switch_cpus_11.data        27939                       # number of ReadSharedReq MSHR misses
system.cpu1.l2cache.ReadSharedReq_mshr_misses::total        29064                       # number of ReadSharedReq MSHR misses
system.cpu1.l2cache.ReadSharedReq_mshr_miss_latency::.switch_cpus1.data    138771345                       # number of ReadSharedReq MSHR miss cycles
system.cpu1.l2cache.ReadSharedReq_mshr_miss_latency::.switch_cpus_11.data   3392775801                       # number of ReadSharedReq MSHR miss cycles
system.cpu1.l2cache.ReadSharedReq_mshr_miss_latency::total   3531547146                       # number of ReadSharedReq MSHR miss cycles
system.cpu1.l2cache.ReadSharedReq_mshr_miss_rate::.switch_cpus1.data     0.946173                       # mshr miss rate for ReadSharedReq accesses
system.cpu1.l2cache.ReadSharedReq_mshr_miss_rate::.switch_cpus_11.data     0.522840                       # mshr miss rate for ReadSharedReq accesses
system.cpu1.l2cache.ReadSharedReq_mshr_miss_rate::total     0.532054                       # mshr miss rate for ReadSharedReq accesses
system.cpu1.l2cache.ReadSharedReq_avg_mshr_miss_latency::.switch_cpus1.data 123352.306667                       # average ReadSharedReq mshr miss latency
system.cpu1.l2cache.ReadSharedReq_avg_mshr_miss_latency::.switch_cpus_11.data 121435.119403                       # average ReadSharedReq mshr miss latency
system.cpu1.l2cache.ReadSharedReq_avg_mshr_miss_latency::total 121509.329273                       # average ReadSharedReq mshr miss latency
system.cpu1.l2cache.tags.pwrStateResidencyTicks::UNDEFINED 1319446388340                       # Cumulative time (in ticks) in various power states
system.cpu1.l2cache.tags.tagsinuse          73.425467                       # Cycle average of tags in use
system.cpu1.l2cache.tags.total_refs            109275                       # Total number of references to valid blocks.
system.cpu1.l2cache.tags.sampled_refs           29375                       # Sample count of references to valid blocks.
system.cpu1.l2cache.tags.avg_refs            3.720000                       # Average number of references to valid blocks.
system.cpu1.l2cache.tags.warmup_cycle    1293351708033                       # Cycle when the warmup percentage was hit.
system.cpu1.l2cache.tags.occ_blocks::.cpu1.inst     0.003631                       # Average occupied blocks per requestor
system.cpu1.l2cache.tags.occ_blocks::.cpu1.data     0.019777                       # Average occupied blocks per requestor
system.cpu1.l2cache.tags.occ_blocks::.switch_cpus1.inst     0.676760                       # Average occupied blocks per requestor
system.cpu1.l2cache.tags.occ_blocks::.switch_cpus1.data    10.151515                       # Average occupied blocks per requestor
system.cpu1.l2cache.tags.occ_blocks::.switch_cpus_11.inst     0.188137                       # Average occupied blocks per requestor
system.cpu1.l2cache.tags.occ_blocks::.switch_cpus_11.data    62.385649                       # Average occupied blocks per requestor
system.cpu1.l2cache.tags.occ_percent::.cpu1.inst     0.000001                       # Average percentage of cache occupancy
system.cpu1.l2cache.tags.occ_percent::.cpu1.data     0.000005                       # Average percentage of cache occupancy
system.cpu1.l2cache.tags.occ_percent::.switch_cpus1.inst     0.000165                       # Average percentage of cache occupancy
system.cpu1.l2cache.tags.occ_percent::.switch_cpus1.data     0.002478                       # Average percentage of cache occupancy
system.cpu1.l2cache.tags.occ_percent::.switch_cpus_11.inst     0.000046                       # Average percentage of cache occupancy
system.cpu1.l2cache.tags.occ_percent::.switch_cpus_11.data     0.015231                       # Average percentage of cache occupancy
system.cpu1.l2cache.tags.occ_percent::total     0.017926                       # Average percentage of cache occupancy
system.cpu1.l2cache.tags.occ_task_id_blocks::1024         4096                       # Occupied blocks per task id
system.cpu1.l2cache.tags.age_task_id_blocks_1024::0           13                       # Occupied blocks per task id
system.cpu1.l2cache.tags.age_task_id_blocks_1024::1          106                       # Occupied blocks per task id
system.cpu1.l2cache.tags.age_task_id_blocks_1024::2          953                       # Occupied blocks per task id
system.cpu1.l2cache.tags.age_task_id_blocks_1024::3         2515                       # Occupied blocks per task id
system.cpu1.l2cache.tags.age_task_id_blocks_1024::4          509                       # Occupied blocks per task id
system.cpu1.l2cache.tags.occ_task_id_percent::1024            1                       # Percentage of cache occupancy per task id
system.cpu1.l2cache.tags.tag_accesses         1777871                       # Number of tag accesses
system.cpu1.l2cache.tags.data_accesses        1777871                       # Number of data accesses
system.cpu1.toL2Bus.pwrStateResidencyTicks::UNDEFINED 1319446388340                       # Cumulative time (in ticks) in various power states
system.cpu1.toL2Bus.trans_dist::ReadResp        54912                       # Transaction distribution
system.cpu1.toL2Bus.trans_dist::WritebackDirty          180                       # Transaction distribution
system.cpu1.toL2Bus.trans_dist::CleanEvict        79532                       # Transaction distribution
system.cpu1.toL2Bus.trans_dist::ReadExReq          145                       # Transaction distribution
system.cpu1.toL2Bus.trans_dist::ReadExResp          145                       # Transaction distribution
system.cpu1.toL2Bus.trans_dist::ReadCleanReq          286                       # Transaction distribution
system.cpu1.toL2Bus.trans_dist::ReadSharedReq        54626                       # Transaction distribution
system.cpu1.toL2Bus.pkt_count_system.cpu1.icache.mem_side::system.cpu1.l2cache.cpu_side          572                       # Packet count per connected master and slave (bytes)
system.cpu1.toL2Bus.pkt_count_system.cpu1.dcache.mem_side::system.cpu1.l2cache.cpu_side       163801                       # Packet count per connected master and slave (bytes)
system.cpu1.toL2Bus.pkt_count::total           164373                       # Packet count per connected master and slave (bytes)
system.cpu1.toL2Bus.pkt_size_system.cpu1.icache.mem_side::system.cpu1.l2cache.cpu_side        18304                       # Cumulative packet size per connected master and slave (bytes)
system.cpu1.toL2Bus.pkt_size_system.cpu1.dcache.mem_side::system.cpu1.l2cache.cpu_side      3516352                       # Cumulative packet size per connected master and slave (bytes)
system.cpu1.toL2Bus.pkt_size::total           3534656                       # Cumulative packet size per connected master and slave (bytes)
system.cpu1.toL2Bus.snoops                      25453                       # Total snoops (count)
system.cpu1.toL2Bus.snoopTraffic                  512                       # Total snoop traffic (bytes)
system.cpu1.toL2Bus.snoop_fanout::samples        80510                       # Request fanout histogram
system.cpu1.toL2Bus.snoop_fanout::mean       0.006111                       # Request fanout histogram
system.cpu1.toL2Bus.snoop_fanout::stdev      0.077934                       # Request fanout histogram
system.cpu1.toL2Bus.snoop_fanout::underflows            0      0.00%      0.00% # Request fanout histogram
system.cpu1.toL2Bus.snoop_fanout::0             80018     99.39%     99.39% # Request fanout histogram
system.cpu1.toL2Bus.snoop_fanout::1               492      0.61%    100.00% # Request fanout histogram
system.cpu1.toL2Bus.snoop_fanout::2                 0      0.00%    100.00% # Request fanout histogram
system.cpu1.toL2Bus.snoop_fanout::3                 0      0.00%    100.00% # Request fanout histogram
system.cpu1.toL2Bus.snoop_fanout::4                 0      0.00%    100.00% # Request fanout histogram
system.cpu1.toL2Bus.snoop_fanout::overflows            0      0.00%    100.00% # Request fanout histogram
system.cpu1.toL2Bus.snoop_fanout::min_value            0                       # Request fanout histogram
system.cpu1.toL2Bus.snoop_fanout::max_value            1                       # Request fanout histogram
system.cpu1.toL2Bus.snoop_fanout::total         80510                       # Request fanout histogram
system.cpu1.toL2Bus.reqLayer0.occupancy      45727386                       # Layer occupancy (ticks)
system.cpu1.toL2Bus.reqLayer0.utilization          0.2                       # Layer utilization (%)
system.cpu1.toL2Bus.respLayer1.occupancy     68517270                       # Layer occupancy (ticks)
system.cpu1.toL2Bus.respLayer1.utilization          0.3                       # Layer utilization (%)
system.cpu1.toL2Bus.respLayer0.occupancy       356535                       # Layer occupancy (ticks)
system.cpu1.toL2Bus.respLayer0.utilization          0.0                       # Layer utilization (%)
system.switch_cpus_10.pwrStateResidencyTicks::OFF  26094680724                       # Cumulative time (in ticks) in various power states
system.switch_cpus_10.dtb.walker.pwrStateResidencyTicks::UNDEFINED 1319446388340                       # Cumulative time (in ticks) in various power states
system.switch_cpus_10.itb.walker.pwrStateResidencyTicks::UNDEFINED 1319446388340                       # Cumulative time (in ticks) in various power states
system.switch_cpus_11.pwrStateResidencyTicks::OFF  26094680724                       # Cumulative time (in ticks) in various power states
system.switch_cpus_11.dtb.walker.pwrStateResidencyTicks::UNDEFINED 1319446388340                       # Cumulative time (in ticks) in various power states
system.switch_cpus_11.itb.walker.pwrStateResidencyTicks::UNDEFINED 1319446388340                       # Cumulative time (in ticks) in various power states
system.cpu_voltage_domain.voltage                   1                       # Voltage in Volts
system.switch_cpus1.numPwrStateTransitions            1                       # Number of power state transitions
system.switch_cpus1.pwrStateResidencyTicks::UNDEFINED 1293351707616                       # Cumulative time (in ticks) in various power states
system.switch_cpus1.pwrStateResidencyTicks::OFF  26094680724                       # Cumulative time (in ticks) in various power states
system.switch_cpus1.dtb.walker.pwrStateResidencyTicks::UNDEFINED 1319446388340                       # Cumulative time (in ticks) in various power states
system.switch_cpus1.itb.walker.pwrStateResidencyTicks::UNDEFINED 1319446388340                       # Cumulative time (in ticks) in various power states
system.mem_ctrls.pwrStateResidencyTicks::UNDEFINED 1319446388340                       # Cumulative time (in ticks) in various power states
system.mem_ctrls.bytes_read::.cpu0.inst            64                       # Number of bytes read from this memory
system.mem_ctrls.bytes_read::.cpu1.inst            64                       # Number of bytes read from this memory
system.mem_ctrls.bytes_read::.cpu1.data            64                       # Number of bytes read from this memory
system.mem_ctrls.bytes_read::.switch_cpus0.inst        20864                       # Number of bytes read from this memory
system.mem_ctrls.bytes_read::.switch_cpus0.data        58944                       # Number of bytes read from this memory
system.mem_ctrls.bytes_read::.switch_cpus1.inst        12672                       # Number of bytes read from this memory
system.mem_ctrls.bytes_read::.switch_cpus1.data        73344                       # Number of bytes read from this memory
system.mem_ctrls.bytes_read::.switch_cpus_10.inst        24640                       # Number of bytes read from this memory
system.mem_ctrls.bytes_read::.switch_cpus_10.data       342336                       # Number of bytes read from this memory
system.mem_ctrls.bytes_read::.switch_cpus_11.inst         5568                       # Number of bytes read from this memory
system.mem_ctrls.bytes_read::.switch_cpus_11.data      1787136                       # Number of bytes read from this memory
system.mem_ctrls.bytes_read::total            2325696                       # Number of bytes read from this memory
system.mem_ctrls.bytes_inst_read::.cpu0.inst           64                       # Number of instructions bytes read from this memory
system.mem_ctrls.bytes_inst_read::.cpu1.inst           64                       # Number of instructions bytes read from this memory
system.mem_ctrls.bytes_inst_read::.switch_cpus0.inst        20864                       # Number of instructions bytes read from this memory
system.mem_ctrls.bytes_inst_read::.switch_cpus1.inst        12672                       # Number of instructions bytes read from this memory
system.mem_ctrls.bytes_inst_read::.switch_cpus_10.inst        24640                       # Number of instructions bytes read from this memory
system.mem_ctrls.bytes_inst_read::.switch_cpus_11.inst         5568                       # Number of instructions bytes read from this memory
system.mem_ctrls.bytes_inst_read::total         63872                       # Number of instructions bytes read from this memory
system.mem_ctrls.bytes_written::.switch_cpus1.data           64                       # Number of bytes written to this memory
system.mem_ctrls.bytes_written::total              64                       # Number of bytes written to this memory
system.mem_ctrls.num_reads::.cpu0.inst              1                       # Number of read requests responded to by this memory
system.mem_ctrls.num_reads::.cpu1.inst              1                       # Number of read requests responded to by this memory
system.mem_ctrls.num_reads::.cpu1.data              1                       # Number of read requests responded to by this memory
system.mem_ctrls.num_reads::.switch_cpus0.inst          326                       # Number of read requests responded to by this memory
system.mem_ctrls.num_reads::.switch_cpus0.data          921                       # Number of read requests responded to by this memory
system.mem_ctrls.num_reads::.switch_cpus1.inst          198                       # Number of read requests responded to by this memory
system.mem_ctrls.num_reads::.switch_cpus1.data         1146                       # Number of read requests responded to by this memory
system.mem_ctrls.num_reads::.switch_cpus_10.inst          385                       # Number of read requests responded to by this memory
system.mem_ctrls.num_reads::.switch_cpus_10.data         5349                       # Number of read requests responded to by this memory
system.mem_ctrls.num_reads::.switch_cpus_11.inst           87                       # Number of read requests responded to by this memory
system.mem_ctrls.num_reads::.switch_cpus_11.data        27924                       # Number of read requests responded to by this memory
system.mem_ctrls.num_reads::total               36339                       # Number of read requests responded to by this memory
system.mem_ctrls.num_writes::.switch_cpus1.data            1                       # Number of write requests responded to by this memory
system.mem_ctrls.num_writes::total                  1                       # Number of write requests responded to by this memory
system.mem_ctrls.bw_read::.cpu0.inst             2453                       # Total read bandwidth from this memory (bytes/s)
system.mem_ctrls.bw_read::.cpu1.inst             2453                       # Total read bandwidth from this memory (bytes/s)
system.mem_ctrls.bw_read::.cpu1.data             2453                       # Total read bandwidth from this memory (bytes/s)
system.mem_ctrls.bw_read::.switch_cpus0.inst       799550                       # Total read bandwidth from this memory (bytes/s)
system.mem_ctrls.bw_read::.switch_cpus0.data      2258851                       # Total read bandwidth from this memory (bytes/s)
system.mem_ctrls.bw_read::.switch_cpus1.inst       485616                       # Total read bandwidth from this memory (bytes/s)
system.mem_ctrls.bw_read::.switch_cpus1.data      2810688                       # Total read bandwidth from this memory (bytes/s)
system.mem_ctrls.bw_read::.switch_cpus_10.inst       944254                       # Total read bandwidth from this memory (bytes/s)
system.mem_ctrls.bw_read::.switch_cpus_10.data     13118996                       # Total read bandwidth from this memory (bytes/s)
system.mem_ctrls.bw_read::.switch_cpus_11.inst       213377                       # Total read bandwidth from this memory (bytes/s)
system.mem_ctrls.bw_read::.switch_cpus_11.data     68486601                       # Total read bandwidth from this memory (bytes/s)
system.mem_ctrls.bw_read::total              89125290                       # Total read bandwidth from this memory (bytes/s)
system.mem_ctrls.bw_inst_read::.cpu0.inst         2453                       # Instruction read bandwidth from this memory (bytes/s)
system.mem_ctrls.bw_inst_read::.cpu1.inst         2453                       # Instruction read bandwidth from this memory (bytes/s)
system.mem_ctrls.bw_inst_read::.switch_cpus0.inst       799550                       # Instruction read bandwidth from this memory (bytes/s)
system.mem_ctrls.bw_inst_read::.switch_cpus1.inst       485616                       # Instruction read bandwidth from this memory (bytes/s)
system.mem_ctrls.bw_inst_read::.switch_cpus_10.inst       944254                       # Instruction read bandwidth from this memory (bytes/s)
system.mem_ctrls.bw_inst_read::.switch_cpus_11.inst       213377                       # Instruction read bandwidth from this memory (bytes/s)
system.mem_ctrls.bw_inst_read::total          2447702                       # Instruction read bandwidth from this memory (bytes/s)
system.mem_ctrls.bw_write::.switch_cpus1.data         2453                       # Write bandwidth from this memory (bytes/s)
system.mem_ctrls.bw_write::total                 2453                       # Write bandwidth from this memory (bytes/s)
system.mem_ctrls.bw_total::.cpu0.inst            2453                       # Total bandwidth to/from this memory (bytes/s)
system.mem_ctrls.bw_total::.cpu1.inst            2453                       # Total bandwidth to/from this memory (bytes/s)
system.mem_ctrls.bw_total::.cpu1.data            2453                       # Total bandwidth to/from this memory (bytes/s)
system.mem_ctrls.bw_total::.switch_cpus0.inst       799550                       # Total bandwidth to/from this memory (bytes/s)
system.mem_ctrls.bw_total::.switch_cpus0.data      2258851                       # Total bandwidth to/from this memory (bytes/s)
system.mem_ctrls.bw_total::.switch_cpus1.inst       485616                       # Total bandwidth to/from this memory (bytes/s)
system.mem_ctrls.bw_total::.switch_cpus1.data      2813140                       # Total bandwidth to/from this memory (bytes/s)
system.mem_ctrls.bw_total::.switch_cpus_10.inst       944254                       # Total bandwidth to/from this memory (bytes/s)
system.mem_ctrls.bw_total::.switch_cpus_10.data     13118996                       # Total bandwidth to/from this memory (bytes/s)
system.mem_ctrls.bw_total::.switch_cpus_11.inst       213377                       # Total bandwidth to/from this memory (bytes/s)
system.mem_ctrls.bw_total::.switch_cpus_11.data     68486601                       # Total bandwidth to/from this memory (bytes/s)
system.mem_ctrls.bw_total::total             89127743                       # Total bandwidth to/from this memory (bytes/s)
system.cpu_clk_domain.clock                       417                       # Clock period in ticks

---------- End Simulation Statistics   ----------
