
---------- Begin Simulation Statistics ----------
final_tick                               1319121680031                       # Number of ticks from beginning of simulation (restored from checkpoints and never reset)
host_inst_rate                                 116626                       # Simulator instruction rate (inst/s)
host_mem_usage                                4540560                       # Number of bytes of host memory used
host_op_rate                                   232446                       # Simulator op (including micro ops) rate (op/s)
host_seconds                                   476.60                       # Real time elapsed on the host
host_tick_rate                               54069885                       # Simulator tick rate (ticks/s)
sim_freq                                 1000000000000                       # Frequency of simulated ticks
sim_insts                                    55584331                       # Number of instructions simulated
sim_ops                                     110784862                       # Number of ops (including micro ops) simulated
sim_seconds                                  0.025770                       # Number of seconds simulated
sim_ticks                                 25769972415                       # Number of ticks simulated
system.cpu0.committedInsts                          2                       # Number of instructions committed
system.cpu0.committedOps                            3                       # Number of ops (including micro ops) committed
system.cpu0.dtb.rdAccesses                          1                       # TLB accesses on read requests
system.cpu0.dtb.rdMisses                            0                       # TLB misses on read requests
system.cpu0.dtb.wrAccesses                          1                       # TLB accesses on write requests
system.cpu0.dtb.wrMisses                            0                       # TLB misses on write requests
system.cpu0.idle_fraction                           0                       # Percentage of idle cycles
system.cpu0.itb.rdAccesses                          0                       # TLB accesses on read requests
system.cpu0.itb.rdMisses                            0                       # TLB misses on read requests
system.cpu0.itb.wrAccesses                          3                       # TLB accesses on write requests
system.cpu0.itb.wrMisses                            0                       # TLB misses on write requests
system.cpu0.not_idle_fraction                       1                       # Percentage of non-idle cycles
system.cpu0.numCycles                               4                       # number of cpu cycles simulated
system.cpu0.numWorkItemsCompleted                   0                       # number of work items this cpu completed
system.cpu0.numWorkItemsStarted                     0                       # number of work items this cpu started
system.cpu0.num_busy_cycles                         4                       # Number of busy cycles
system.cpu0.num_conditional_control_insts            0                       # number of instructions that are conditional controls
system.cpu0.num_fp_alu_accesses                     0                       # Number of float alu accesses
system.cpu0.num_fp_insts                            0                       # number of float instructions
system.cpu0.num_fp_register_reads                   0                       # number of times the floating registers were read
system.cpu0.num_fp_register_writes                  0                       # number of times the floating registers were written
system.cpu0.num_func_calls                          0                       # number of times a function call or return occured
system.cpu0.num_idle_cycles                         0                       # Number of idle cycles
system.cpu0.num_int_alu_accesses                    3                       # Number of integer alu accesses
system.cpu0.num_int_insts                           3                       # number of integer instructions
system.cpu0.num_int_register_reads                  7                       # number of times the integer registers were read
system.cpu0.num_int_register_writes                 2                       # number of times the integer registers were written
system.cpu0.num_load_insts                          1                       # Number of load instructions
system.cpu0.num_mem_refs                            2                       # number of memory refs
system.cpu0.num_store_insts                         1                       # Number of store instructions
system.cpu0.num_vec_alu_accesses                    0                       # Number of vector alu accesses
system.cpu0.num_vec_insts                           0                       # number of vector instructions
system.cpu0.num_vec_register_reads                  0                       # number of times the vector registers were read
system.cpu0.num_vec_register_writes                 0                       # number of times the vector registers were written
system.cpu0.op_class::No_OpClass                    0      0.00%      0.00% # Class of executed instruction
system.cpu0.op_class::IntAlu                        1     33.33%     33.33% # Class of executed instruction
system.cpu0.op_class::IntMult                       0      0.00%     33.33% # Class of executed instruction
system.cpu0.op_class::IntDiv                        0      0.00%     33.33% # Class of executed instruction
system.cpu0.op_class::FloatAdd                      0      0.00%     33.33% # Class of executed instruction
system.cpu0.op_class::FloatCmp                      0      0.00%     33.33% # Class of executed instruction
system.cpu0.op_class::FloatCvt                      0      0.00%     33.33% # Class of executed instruction
system.cpu0.op_class::FloatMult                     0      0.00%     33.33% # Class of executed instruction
system.cpu0.op_class::FloatMultAcc                  0      0.00%     33.33% # Class of executed instruction
system.cpu0.op_class::FloatDiv                      0      0.00%     33.33% # Class of executed instruction
system.cpu0.op_class::FloatMisc                     0      0.00%     33.33% # Class of executed instruction
system.cpu0.op_class::FloatSqrt                     0      0.00%     33.33% # Class of executed instruction
system.cpu0.op_class::SimdAdd                       0      0.00%     33.33% # Class of executed instruction
system.cpu0.op_class::SimdAddAcc                    0      0.00%     33.33% # Class of executed instruction
system.cpu0.op_class::SimdAlu                       0      0.00%     33.33% # Class of executed instruction
system.cpu0.op_class::SimdCmp                       0      0.00%     33.33% # Class of executed instruction
system.cpu0.op_class::SimdCvt                       0      0.00%     33.33% # Class of executed instruction
system.cpu0.op_class::SimdMisc                      0      0.00%     33.33% # Class of executed instruction
system.cpu0.op_class::SimdMult                      0      0.00%     33.33% # Class of executed instruction
system.cpu0.op_class::SimdMultAcc                   0      0.00%     33.33% # Class of executed instruction
system.cpu0.op_class::SimdShift                     0      0.00%     33.33% # Class of executed instruction
system.cpu0.op_class::SimdShiftAcc                  0      0.00%     33.33% # Class of executed instruction
system.cpu0.op_class::SimdDiv                       0      0.00%     33.33% # Class of executed instruction
system.cpu0.op_class::SimdSqrt                      0      0.00%     33.33% # Class of executed instruction
system.cpu0.op_class::SimdFloatAdd                  0      0.00%     33.33% # Class of executed instruction
system.cpu0.op_class::SimdFloatAlu                  0      0.00%     33.33% # Class of executed instruction
system.cpu0.op_class::SimdFloatCmp                  0      0.00%     33.33% # Class of executed instruction
system.cpu0.op_class::SimdFloatCvt                  0      0.00%     33.33% # Class of executed instruction
system.cpu0.op_class::SimdFloatDiv                  0      0.00%     33.33% # Class of executed instruction
system.cpu0.op_class::SimdFloatMisc                 0      0.00%     33.33% # Class of executed instruction
system.cpu0.op_class::SimdFloatMult                 0      0.00%     33.33% # Class of executed instruction
system.cpu0.op_class::SimdFloatMultAcc              0      0.00%     33.33% # Class of executed instruction
system.cpu0.op_class::SimdFloatSqrt                 0      0.00%     33.33% # Class of executed instruction
system.cpu0.op_class::SimdReduceAdd                 0      0.00%     33.33% # Class of executed instruction
system.cpu0.op_class::SimdReduceAlu                 0      0.00%     33.33% # Class of executed instruction
system.cpu0.op_class::SimdReduceCmp                 0      0.00%     33.33% # Class of executed instruction
system.cpu0.op_class::SimdFloatReduceAdd            0      0.00%     33.33% # Class of executed instruction
system.cpu0.op_class::SimdFloatReduceCmp            0      0.00%     33.33% # Class of executed instruction
system.cpu0.op_class::SimdAes                       0      0.00%     33.33% # Class of executed instruction
system.cpu0.op_class::SimdAesMix                    0      0.00%     33.33% # Class of executed instruction
system.cpu0.op_class::SimdSha1Hash                  0      0.00%     33.33% # Class of executed instruction
system.cpu0.op_class::SimdSha1Hash2                 0      0.00%     33.33% # Class of executed instruction
system.cpu0.op_class::SimdSha256Hash                0      0.00%     33.33% # Class of executed instruction
system.cpu0.op_class::SimdSha256Hash2               0      0.00%     33.33% # Class of executed instruction
system.cpu0.op_class::SimdShaSigma2                 0      0.00%     33.33% # Class of executed instruction
system.cpu0.op_class::SimdShaSigma3                 0      0.00%     33.33% # Class of executed instruction
system.cpu0.op_class::SimdPredAlu                   0      0.00%     33.33% # Class of executed instruction
system.cpu0.op_class::MemRead                       1     33.33%     66.67% # Class of executed instruction
system.cpu0.op_class::MemWrite                      1     33.33%    100.00% # Class of executed instruction
system.cpu0.op_class::FloatMemRead                  0      0.00%    100.00% # Class of executed instruction
system.cpu0.op_class::FloatMemWrite                 0      0.00%    100.00% # Class of executed instruction
system.cpu0.op_class::IprAccess                     0      0.00%    100.00% # Class of executed instruction
system.cpu0.op_class::InstPrefetch                  0      0.00%    100.00% # Class of executed instruction
system.cpu0.op_class::total                         3                       # Class of executed instruction
system.cpu0.toL2Bus.snoop_filter.hit_multi_requests            0                       # Number of requests hitting in the snoop filter with multiple (>1) holders of the requested data.
system.cpu0.toL2Bus.snoop_filter.hit_multi_snoops            0                       # Number of snoops hitting in the snoop filter with multiple (>1) holders of the requested data.
system.cpu0.toL2Bus.snoop_filter.hit_single_requests       514101                       # Number of requests hitting in the snoop filter with a single holder of the requested data.
system.cpu0.toL2Bus.snoop_filter.hit_single_snoops       334226                       # Number of snoops hitting in the snoop filter with a single holder of the requested data.
system.cpu0.toL2Bus.snoop_filter.tot_requests      1028764                       # Total number of requests made to the snoop filter.
system.cpu0.toL2Bus.snoop_filter.tot_snoops       334226                       # Total number of snoops made to the snoop filter.
system.cpu0.toL3Bus.snoop_filter.hit_multi_requests            0                       # Number of requests hitting in the snoop filter with multiple (>1) holders of the requested data.
system.cpu0.toL3Bus.snoop_filter.hit_multi_snoops            0                       # Number of snoops hitting in the snoop filter with multiple (>1) holders of the requested data.
system.cpu0.toL3Bus.snoop_filter.hit_single_requests       507474                       # Number of requests hitting in the snoop filter with a single holder of the requested data.
system.cpu0.toL3Bus.snoop_filter.hit_single_snoops           90                       # Number of snoops hitting in the snoop filter with a single holder of the requested data.
system.cpu0.toL3Bus.snoop_filter.tot_requests      1018886                       # Total number of requests made to the snoop filter.
system.cpu0.toL3Bus.snoop_filter.tot_snoops           90                       # Total number of snoops made to the snoop filter.
system.cpu0.workload.numSyscalls                    0                       # Number of system calls
system.cpu1.Branches                                1                       # Number of branches fetched
system.cpu1.committedInsts                          1                       # Number of instructions committed
system.cpu1.committedOps                            5                       # Number of ops (including micro ops) committed
system.cpu1.dtb.rdAccesses                          0                       # TLB accesses on read requests
system.cpu1.dtb.rdMisses                            0                       # TLB misses on read requests
system.cpu1.dtb.wrAccesses                          1                       # TLB accesses on write requests
system.cpu1.dtb.wrMisses                            0                       # TLB misses on write requests
system.cpu1.idle_fraction                           0                       # Percentage of idle cycles
system.cpu1.itb.rdAccesses                          0                       # TLB accesses on read requests
system.cpu1.itb.rdMisses                            0                       # TLB misses on read requests
system.cpu1.itb.wrAccesses                          2                       # TLB accesses on write requests
system.cpu1.itb.wrMisses                            0                       # TLB misses on write requests
system.cpu1.not_idle_fraction                       1                       # Percentage of non-idle cycles
system.cpu1.numCycles                               6                       # number of cpu cycles simulated
system.cpu1.numWorkItemsCompleted                   0                       # number of work items this cpu completed
system.cpu1.numWorkItemsStarted                     0                       # number of work items this cpu started
system.cpu1.num_busy_cycles                         6                       # Number of busy cycles
system.cpu1.num_conditional_control_insts            0                       # number of instructions that are conditional controls
system.cpu1.num_fp_alu_accesses                     0                       # Number of float alu accesses
system.cpu1.num_fp_insts                            0                       # number of float instructions
system.cpu1.num_fp_register_reads                   0                       # number of times the floating registers were read
system.cpu1.num_fp_register_writes                  0                       # number of times the floating registers were written
system.cpu1.num_func_calls                          1                       # number of times a function call or return occured
system.cpu1.num_idle_cycles                         0                       # Number of idle cycles
system.cpu1.num_int_alu_accesses                    5                       # Number of integer alu accesses
system.cpu1.num_int_insts                           5                       # number of integer instructions
system.cpu1.num_int_register_reads                  9                       # number of times the integer registers were read
system.cpu1.num_int_register_writes                 3                       # number of times the integer registers were written
system.cpu1.num_load_insts                          0                       # Number of load instructions
system.cpu1.num_mem_refs                            1                       # number of memory refs
system.cpu1.num_store_insts                         1                       # Number of store instructions
system.cpu1.num_vec_alu_accesses                    0                       # Number of vector alu accesses
system.cpu1.num_vec_insts                           0                       # number of vector instructions
system.cpu1.num_vec_register_reads                  0                       # number of times the vector registers were read
system.cpu1.num_vec_register_writes                 0                       # number of times the vector registers were written
system.cpu1.op_class::No_OpClass                    0      0.00%      0.00% # Class of executed instruction
system.cpu1.op_class::IntAlu                        4     80.00%     80.00% # Class of executed instruction
system.cpu1.op_class::IntMult                       0      0.00%     80.00% # Class of executed instruction
system.cpu1.op_class::IntDiv                        0      0.00%     80.00% # Class of executed instruction
system.cpu1.op_class::FloatAdd                      0      0.00%     80.00% # Class of executed instruction
system.cpu1.op_class::FloatCmp                      0      0.00%     80.00% # Class of executed instruction
system.cpu1.op_class::FloatCvt                      0      0.00%     80.00% # Class of executed instruction
system.cpu1.op_class::FloatMult                     0      0.00%     80.00% # Class of executed instruction
system.cpu1.op_class::FloatMultAcc                  0      0.00%     80.00% # Class of executed instruction
system.cpu1.op_class::FloatDiv                      0      0.00%     80.00% # Class of executed instruction
system.cpu1.op_class::FloatMisc                     0      0.00%     80.00% # Class of executed instruction
system.cpu1.op_class::FloatSqrt                     0      0.00%     80.00% # Class of executed instruction
system.cpu1.op_class::SimdAdd                       0      0.00%     80.00% # Class of executed instruction
system.cpu1.op_class::SimdAddAcc                    0      0.00%     80.00% # Class of executed instruction
system.cpu1.op_class::SimdAlu                       0      0.00%     80.00% # Class of executed instruction
system.cpu1.op_class::SimdCmp                       0      0.00%     80.00% # Class of executed instruction
system.cpu1.op_class::SimdCvt                       0      0.00%     80.00% # Class of executed instruction
system.cpu1.op_class::SimdMisc                      0      0.00%     80.00% # Class of executed instruction
system.cpu1.op_class::SimdMult                      0      0.00%     80.00% # Class of executed instruction
system.cpu1.op_class::SimdMultAcc                   0      0.00%     80.00% # Class of executed instruction
system.cpu1.op_class::SimdShift                     0      0.00%     80.00% # Class of executed instruction
system.cpu1.op_class::SimdShiftAcc                  0      0.00%     80.00% # Class of executed instruction
system.cpu1.op_class::SimdDiv                       0      0.00%     80.00% # Class of executed instruction
system.cpu1.op_class::SimdSqrt                      0      0.00%     80.00% # Class of executed instruction
system.cpu1.op_class::SimdFloatAdd                  0      0.00%     80.00% # Class of executed instruction
system.cpu1.op_class::SimdFloatAlu                  0      0.00%     80.00% # Class of executed instruction
system.cpu1.op_class::SimdFloatCmp                  0      0.00%     80.00% # Class of executed instruction
system.cpu1.op_class::SimdFloatCvt                  0      0.00%     80.00% # Class of executed instruction
system.cpu1.op_class::SimdFloatDiv                  0      0.00%     80.00% # Class of executed instruction
system.cpu1.op_class::SimdFloatMisc                 0      0.00%     80.00% # Class of executed instruction
system.cpu1.op_class::SimdFloatMult                 0      0.00%     80.00% # Class of executed instruction
system.cpu1.op_class::SimdFloatMultAcc              0      0.00%     80.00% # Class of executed instruction
system.cpu1.op_class::SimdFloatSqrt                 0      0.00%     80.00% # Class of executed instruction
system.cpu1.op_class::SimdReduceAdd                 0      0.00%     80.00% # Class of executed instruction
system.cpu1.op_class::SimdReduceAlu                 0      0.00%     80.00% # Class of executed instruction
system.cpu1.op_class::SimdReduceCmp                 0      0.00%     80.00% # Class of executed instruction
system.cpu1.op_class::SimdFloatReduceAdd            0      0.00%     80.00% # Class of executed instruction
system.cpu1.op_class::SimdFloatReduceCmp            0      0.00%     80.00% # Class of executed instruction
system.cpu1.op_class::SimdAes                       0      0.00%     80.00% # Class of executed instruction
system.cpu1.op_class::SimdAesMix                    0      0.00%     80.00% # Class of executed instruction
system.cpu1.op_class::SimdSha1Hash                  0      0.00%     80.00% # Class of executed instruction
system.cpu1.op_class::SimdSha1Hash2                 0      0.00%     80.00% # Class of executed instruction
system.cpu1.op_class::SimdSha256Hash                0      0.00%     80.00% # Class of executed instruction
system.cpu1.op_class::SimdSha256Hash2               0      0.00%     80.00% # Class of executed instruction
system.cpu1.op_class::SimdShaSigma2                 0      0.00%     80.00% # Class of executed instruction
system.cpu1.op_class::SimdShaSigma3                 0      0.00%     80.00% # Class of executed instruction
system.cpu1.op_class::SimdPredAlu                   0      0.00%     80.00% # Class of executed instruction
system.cpu1.op_class::MemRead                       0      0.00%     80.00% # Class of executed instruction
system.cpu1.op_class::MemWrite                      1     20.00%    100.00% # Class of executed instruction
system.cpu1.op_class::FloatMemRead                  0      0.00%    100.00% # Class of executed instruction
system.cpu1.op_class::FloatMemWrite                 0      0.00%    100.00% # Class of executed instruction
system.cpu1.op_class::IprAccess                     0      0.00%    100.00% # Class of executed instruction
system.cpu1.op_class::InstPrefetch                  0      0.00%    100.00% # Class of executed instruction
system.cpu1.op_class::total                         5                       # Class of executed instruction
system.cpu1.toL2Bus.snoop_filter.hit_multi_requests           44                       # Number of requests hitting in the snoop filter with multiple (>1) holders of the requested data.
system.cpu1.toL2Bus.snoop_filter.hit_multi_snoops            0                       # Number of snoops hitting in the snoop filter with multiple (>1) holders of the requested data.
system.cpu1.toL2Bus.snoop_filter.hit_single_requests        56234                       # Number of requests hitting in the snoop filter with a single holder of the requested data.
system.cpu1.toL2Bus.snoop_filter.hit_single_snoops          505                       # Number of snoops hitting in the snoop filter with a single holder of the requested data.
system.cpu1.toL2Bus.snoop_filter.tot_requests       113265                       # Total number of requests made to the snoop filter.
system.cpu1.toL2Bus.snoop_filter.tot_snoops          505                       # Total number of snoops made to the snoop filter.
system.cpu1.toL3Bus.snoop_filter.hit_multi_requests            0                       # Number of requests hitting in the snoop filter with multiple (>1) holders of the requested data.
system.cpu1.toL3Bus.snoop_filter.hit_multi_snoops            0                       # Number of snoops hitting in the snoop filter with multiple (>1) holders of the requested data.
system.cpu1.toL3Bus.snoop_filter.hit_single_requests        25934                       # Number of requests hitting in the snoop filter with a single holder of the requested data.
system.cpu1.toL3Bus.snoop_filter.hit_single_snoops          242                       # Number of snoops hitting in the snoop filter with a single holder of the requested data.
system.cpu1.toL3Bus.snoop_filter.tot_requests        56283                       # Total number of requests made to the snoop filter.
system.cpu1.toL3Bus.snoop_filter.tot_snoops          242                       # Total number of snoops made to the snoop filter.
system.cpu1.workload.numSyscalls                16989                       # Number of system calls
system.membus.snoop_filter.hit_multi_requests            0                       # Number of requests hitting in the snoop filter with multiple (>1) holders of the requested data.
system.membus.snoop_filter.hit_multi_snoops            0                       # Number of snoops hitting in the snoop filter with multiple (>1) holders of the requested data.
system.membus.snoop_filter.hit_single_requests       141349                       # Number of requests hitting in the snoop filter with a single holder of the requested data.
system.membus.snoop_filter.hit_single_snoops            0                       # Number of snoops hitting in the snoop filter with a single holder of the requested data.
system.membus.snoop_filter.tot_requests        345271                       # Total number of requests made to the snoop filter.
system.membus.snoop_filter.tot_snoops               0                       # Total number of snoops made to the snoop filter.
system.switch_cpus0.Branches                    17258                       # Number of branches fetched
system.switch_cpus0.committedInsts             292401                       # Number of instructions committed
system.switch_cpus0.committedOps               478019                       # Number of ops (including micro ops) committed
system.switch_cpus0.dtb.rdAccesses              76455                       # TLB accesses on read requests
system.switch_cpus0.dtb.rdMisses                    2                       # TLB misses on read requests
system.switch_cpus0.dtb.wrAccesses             119731                       # TLB accesses on write requests
system.switch_cpus0.dtb.wrMisses                  332                       # TLB misses on write requests
system.switch_cpus0.idle_fraction            0.000000                       # Percentage of idle cycles
system.switch_cpus0.itb.rdAccesses                  0                       # TLB accesses on read requests
system.switch_cpus0.itb.rdMisses                    0                       # TLB misses on read requests
system.switch_cpus0.itb.wrAccesses             429290                       # TLB accesses on write requests
system.switch_cpus0.itb.wrMisses                    1                       # TLB misses on write requests
system.switch_cpus0.not_idle_fraction        1.000000                       # Percentage of non-idle cycles
system.switch_cpus0.numCycles                 5561655                       # number of cpu cycles simulated
system.switch_cpus0.numWorkItemsCompleted            0                       # number of work items this cpu completed
system.switch_cpus0.numWorkItemsStarted             0                       # number of work items this cpu started
system.switch_cpus0.num_busy_cycles      5561654.460020                       # Number of busy cycles
system.switch_cpus0.num_cc_register_reads       103549                       # number of times the CC registers were read
system.switch_cpus0.num_cc_register_writes       263844                       # number of times the CC registers were written
system.switch_cpus0.num_conditional_control_insts        17258                       # number of instructions that are conditional controls
system.switch_cpus0.num_fp_alu_accesses             0                       # Number of float alu accesses
system.switch_cpus0.num_fp_insts                    0                       # number of float instructions
system.switch_cpus0.num_fp_register_reads            0                       # number of times the floating registers were read
system.switch_cpus0.num_fp_register_writes            0                       # number of times the floating registers were written
system.switch_cpus0.num_func_calls                  0                       # number of times a function call or return occured
system.switch_cpus0.num_idle_cycles          0.539980                       # Number of idle cycles
system.switch_cpus0.num_int_alu_accesses       478001                       # Number of integer alu accesses
system.switch_cpus0.num_int_insts              478001                       # number of integer instructions
system.switch_cpus0.num_int_register_reads      1026621                       # number of times the integer registers were read
system.switch_cpus0.num_int_register_writes       341088                       # number of times the integer registers were written
system.switch_cpus0.num_load_insts              76455                       # Number of load instructions
system.switch_cpus0.num_mem_refs               196186                       # number of memory refs
system.switch_cpus0.num_store_insts            119731                       # Number of store instructions
system.switch_cpus0.num_vec_alu_accesses            0                       # Number of vector alu accesses
system.switch_cpus0.num_vec_insts                   0                       # number of vector instructions
system.switch_cpus0.num_vec_register_reads            0                       # number of times the vector registers were read
system.switch_cpus0.num_vec_register_writes            0                       # number of times the vector registers were written
system.switch_cpus0.op_class::No_OpClass            1      0.00%      0.00% # Class of executed instruction
system.switch_cpus0.op_class::IntAlu           281756     58.94%     58.94% # Class of executed instruction
system.switch_cpus0.op_class::IntMult              76      0.02%     58.96% # Class of executed instruction
system.switch_cpus0.op_class::IntDiv                0      0.00%     58.96% # Class of executed instruction
system.switch_cpus0.op_class::FloatAdd              0      0.00%     58.96% # Class of executed instruction
system.switch_cpus0.op_class::FloatCmp              0      0.00%     58.96% # Class of executed instruction
system.switch_cpus0.op_class::FloatCvt              0      0.00%     58.96% # Class of executed instruction
system.switch_cpus0.op_class::FloatMult             0      0.00%     58.96% # Class of executed instruction
system.switch_cpus0.op_class::FloatMultAcc            0      0.00%     58.96% # Class of executed instruction
system.switch_cpus0.op_class::FloatDiv              0      0.00%     58.96% # Class of executed instruction
system.switch_cpus0.op_class::FloatMisc             0      0.00%     58.96% # Class of executed instruction
system.switch_cpus0.op_class::FloatSqrt             0      0.00%     58.96% # Class of executed instruction
system.switch_cpus0.op_class::SimdAdd               0      0.00%     58.96% # Class of executed instruction
system.switch_cpus0.op_class::SimdAddAcc            0      0.00%     58.96% # Class of executed instruction
system.switch_cpus0.op_class::SimdAlu               0      0.00%     58.96% # Class of executed instruction
system.switch_cpus0.op_class::SimdCmp               0      0.00%     58.96% # Class of executed instruction
system.switch_cpus0.op_class::SimdCvt               0      0.00%     58.96% # Class of executed instruction
system.switch_cpus0.op_class::SimdMisc              0      0.00%     58.96% # Class of executed instruction
system.switch_cpus0.op_class::SimdMult              0      0.00%     58.96% # Class of executed instruction
system.switch_cpus0.op_class::SimdMultAcc            0      0.00%     58.96% # Class of executed instruction
system.switch_cpus0.op_class::SimdShift             0      0.00%     58.96% # Class of executed instruction
system.switch_cpus0.op_class::SimdShiftAcc            0      0.00%     58.96% # Class of executed instruction
system.switch_cpus0.op_class::SimdDiv               0      0.00%     58.96% # Class of executed instruction
system.switch_cpus0.op_class::SimdSqrt              0      0.00%     58.96% # Class of executed instruction
system.switch_cpus0.op_class::SimdFloatAdd            0      0.00%     58.96% # Class of executed instruction
system.switch_cpus0.op_class::SimdFloatAlu            0      0.00%     58.96% # Class of executed instruction
system.switch_cpus0.op_class::SimdFloatCmp            0      0.00%     58.96% # Class of executed instruction
system.switch_cpus0.op_class::SimdFloatCvt            0      0.00%     58.96% # Class of executed instruction
system.switch_cpus0.op_class::SimdFloatDiv            0      0.00%     58.96% # Class of executed instruction
system.switch_cpus0.op_class::SimdFloatMisc            0      0.00%     58.96% # Class of executed instruction
system.switch_cpus0.op_class::SimdFloatMult            0      0.00%     58.96% # Class of executed instruction
system.switch_cpus0.op_class::SimdFloatMultAcc            0      0.00%     58.96% # Class of executed instruction
system.switch_cpus0.op_class::SimdFloatSqrt            0      0.00%     58.96% # Class of executed instruction
system.switch_cpus0.op_class::SimdReduceAdd            0      0.00%     58.96% # Class of executed instruction
system.switch_cpus0.op_class::SimdReduceAlu            0      0.00%     58.96% # Class of executed instruction
system.switch_cpus0.op_class::SimdReduceCmp            0      0.00%     58.96% # Class of executed instruction
system.switch_cpus0.op_class::SimdFloatReduceAdd            0      0.00%     58.96% # Class of executed instruction
system.switch_cpus0.op_class::SimdFloatReduceCmp            0      0.00%     58.96% # Class of executed instruction
system.switch_cpus0.op_class::SimdAes               0      0.00%     58.96% # Class of executed instruction
system.switch_cpus0.op_class::SimdAesMix            0      0.00%     58.96% # Class of executed instruction
system.switch_cpus0.op_class::SimdSha1Hash            0      0.00%     58.96% # Class of executed instruction
system.switch_cpus0.op_class::SimdSha1Hash2            0      0.00%     58.96% # Class of executed instruction
system.switch_cpus0.op_class::SimdSha256Hash            0      0.00%     58.96% # Class of executed instruction
system.switch_cpus0.op_class::SimdSha256Hash2            0      0.00%     58.96% # Class of executed instruction
system.switch_cpus0.op_class::SimdShaSigma2            0      0.00%     58.96% # Class of executed instruction
system.switch_cpus0.op_class::SimdShaSigma3            0      0.00%     58.96% # Class of executed instruction
system.switch_cpus0.op_class::SimdPredAlu            0      0.00%     58.96% # Class of executed instruction
system.switch_cpus0.op_class::MemRead           76455     15.99%     74.95% # Class of executed instruction
system.switch_cpus0.op_class::MemWrite         119731     25.05%    100.00% # Class of executed instruction
system.switch_cpus0.op_class::FloatMemRead            0      0.00%    100.00% # Class of executed instruction
system.switch_cpus0.op_class::FloatMemWrite            0      0.00%    100.00% # Class of executed instruction
system.switch_cpus0.op_class::IprAccess             0      0.00%    100.00% # Class of executed instruction
system.switch_cpus0.op_class::InstPrefetch            0      0.00%    100.00% # Class of executed instruction
system.switch_cpus0.op_class::total            478019                       # Class of executed instruction
system.switch_cpus1.Branches                   224834                       # Number of branches fetched
system.switch_cpus1.committedInsts            1000001                       # Number of instructions committed
system.switch_cpus1.committedOps              2024684                       # Number of ops (including micro ops) committed
system.switch_cpus1.dtb.rdAccesses             291888                       # TLB accesses on read requests
system.switch_cpus1.dtb.rdMisses                   40                       # TLB misses on read requests
system.switch_cpus1.dtb.wrAccesses             213202                       # TLB accesses on write requests
system.switch_cpus1.dtb.wrMisses                    3                       # TLB misses on write requests
system.switch_cpus1.idle_fraction            0.000000                       # Percentage of idle cycles
system.switch_cpus1.itb.rdAccesses                  0                       # TLB accesses on read requests
system.switch_cpus1.itb.rdMisses                    0                       # TLB misses on read requests
system.switch_cpus1.itb.wrAccesses            1267697                       # TLB accesses on write requests
system.switch_cpus1.itb.wrMisses                   27                       # TLB misses on write requests
system.switch_cpus1.not_idle_fraction        1.000000                       # Percentage of non-idle cycles
system.switch_cpus1.numCycles                 5561655                       # number of cpu cycles simulated
system.switch_cpus1.numWorkItemsCompleted            0                       # number of work items this cpu completed
system.switch_cpus1.numWorkItemsStarted             0                       # number of work items this cpu started
system.switch_cpus1.num_busy_cycles      5561654.460020                       # Number of busy cycles
system.switch_cpus1.num_cc_register_reads       839766                       # number of times the CC registers were read
system.switch_cpus1.num_cc_register_writes       449805                       # number of times the CC registers were written
system.switch_cpus1.num_conditional_control_insts       102459                       # number of instructions that are conditional controls
system.switch_cpus1.num_fp_alu_accesses         16406                       # Number of float alu accesses
system.switch_cpus1.num_fp_insts                16406                       # number of float instructions
system.switch_cpus1.num_fp_register_reads        27540                       # number of times the floating registers were read
system.switch_cpus1.num_fp_register_writes        14430                       # number of times the floating registers were written
system.switch_cpus1.num_func_calls             106054                       # number of times a function call or return occured
system.switch_cpus1.num_idle_cycles          0.539980                       # Number of idle cycles
system.switch_cpus1.num_int_alu_accesses      2003876                       # Number of integer alu accesses
system.switch_cpus1.num_int_insts             2003876                       # number of integer instructions
system.switch_cpus1.num_int_register_reads      4247890                       # number of times the integer registers were read
system.switch_cpus1.num_int_register_writes      1572123                       # number of times the integer registers were written
system.switch_cpus1.num_load_insts             291886                       # Number of load instructions
system.switch_cpus1.num_mem_refs               505086                       # number of memory refs
system.switch_cpus1.num_store_insts            213200                       # Number of store instructions
system.switch_cpus1.num_vec_alu_accesses            0                       # Number of vector alu accesses
system.switch_cpus1.num_vec_insts                   0                       # number of vector instructions
system.switch_cpus1.num_vec_register_reads            0                       # number of times the vector registers were read
system.switch_cpus1.num_vec_register_writes            0                       # number of times the vector registers were written
system.switch_cpus1.op_class::No_OpClass         6797      0.34%      0.34% # Class of executed instruction
system.switch_cpus1.op_class::IntAlu          1497763     73.98%     74.31% # Class of executed instruction
system.switch_cpus1.op_class::IntMult             941      0.05%     74.36% # Class of executed instruction
system.switch_cpus1.op_class::IntDiv             2289      0.11%     74.47% # Class of executed instruction
system.switch_cpus1.op_class::FloatAdd            654      0.03%     74.50% # Class of executed instruction
system.switch_cpus1.op_class::FloatCmp              0      0.00%     74.50% # Class of executed instruction
system.switch_cpus1.op_class::FloatCvt              0      0.00%     74.50% # Class of executed instruction
system.switch_cpus1.op_class::FloatMult             0      0.00%     74.50% # Class of executed instruction
system.switch_cpus1.op_class::FloatMultAcc            0      0.00%     74.50% # Class of executed instruction
system.switch_cpus1.op_class::FloatDiv              0      0.00%     74.50% # Class of executed instruction
system.switch_cpus1.op_class::FloatMisc             0      0.00%     74.50% # Class of executed instruction
system.switch_cpus1.op_class::FloatSqrt             0      0.00%     74.50% # Class of executed instruction
system.switch_cpus1.op_class::SimdAdd               0      0.00%     74.50% # Class of executed instruction
system.switch_cpus1.op_class::SimdAddAcc            0      0.00%     74.50% # Class of executed instruction
system.switch_cpus1.op_class::SimdAlu            2624      0.13%     74.63% # Class of executed instruction
system.switch_cpus1.op_class::SimdCmp               0      0.00%     74.63% # Class of executed instruction
system.switch_cpus1.op_class::SimdCvt            2630      0.13%     74.76% # Class of executed instruction
system.switch_cpus1.op_class::SimdMisc           5900      0.29%     75.05% # Class of executed instruction
system.switch_cpus1.op_class::SimdMult              0      0.00%     75.05% # Class of executed instruction
system.switch_cpus1.op_class::SimdMultAcc            0      0.00%     75.05% # Class of executed instruction
system.switch_cpus1.op_class::SimdShift             0      0.00%     75.05% # Class of executed instruction
system.switch_cpus1.op_class::SimdShiftAcc            0      0.00%     75.05% # Class of executed instruction
system.switch_cpus1.op_class::SimdDiv               0      0.00%     75.05% # Class of executed instruction
system.switch_cpus1.op_class::SimdSqrt              0      0.00%     75.05% # Class of executed instruction
system.switch_cpus1.op_class::SimdFloatAdd            0      0.00%     75.05% # Class of executed instruction
system.switch_cpus1.op_class::SimdFloatAlu            0      0.00%     75.05% # Class of executed instruction
system.switch_cpus1.op_class::SimdFloatCmp            0      0.00%     75.05% # Class of executed instruction
system.switch_cpus1.op_class::SimdFloatCvt            0      0.00%     75.05% # Class of executed instruction
system.switch_cpus1.op_class::SimdFloatDiv            0      0.00%     75.05% # Class of executed instruction
system.switch_cpus1.op_class::SimdFloatMisc            0      0.00%     75.05% # Class of executed instruction
system.switch_cpus1.op_class::SimdFloatMult            0      0.00%     75.05% # Class of executed instruction
system.switch_cpus1.op_class::SimdFloatMultAcc            0      0.00%     75.05% # Class of executed instruction
system.switch_cpus1.op_class::SimdFloatSqrt            0      0.00%     75.05% # Class of executed instruction
system.switch_cpus1.op_class::SimdReduceAdd            0      0.00%     75.05% # Class of executed instruction
system.switch_cpus1.op_class::SimdReduceAlu            0      0.00%     75.05% # Class of executed instruction
system.switch_cpus1.op_class::SimdReduceCmp            0      0.00%     75.05% # Class of executed instruction
system.switch_cpus1.op_class::SimdFloatReduceAdd            0      0.00%     75.05% # Class of executed instruction
system.switch_cpus1.op_class::SimdFloatReduceCmp            0      0.00%     75.05% # Class of executed instruction
system.switch_cpus1.op_class::SimdAes               0      0.00%     75.05% # Class of executed instruction
system.switch_cpus1.op_class::SimdAesMix            0      0.00%     75.05% # Class of executed instruction
system.switch_cpus1.op_class::SimdSha1Hash            0      0.00%     75.05% # Class of executed instruction
system.switch_cpus1.op_class::SimdSha1Hash2            0      0.00%     75.05% # Class of executed instruction
system.switch_cpus1.op_class::SimdSha256Hash            0      0.00%     75.05% # Class of executed instruction
system.switch_cpus1.op_class::SimdSha256Hash2            0      0.00%     75.05% # Class of executed instruction
system.switch_cpus1.op_class::SimdShaSigma2            0      0.00%     75.05% # Class of executed instruction
system.switch_cpus1.op_class::SimdShaSigma3            0      0.00%     75.05% # Class of executed instruction
system.switch_cpus1.op_class::SimdPredAlu            0      0.00%     75.05% # Class of executed instruction
system.switch_cpus1.op_class::MemRead          289904     14.32%     89.37% # Class of executed instruction
system.switch_cpus1.op_class::MemWrite         212546     10.50%     99.87% # Class of executed instruction
system.switch_cpus1.op_class::FloatMemRead         1982      0.10%     99.97% # Class of executed instruction
system.switch_cpus1.op_class::FloatMemWrite          654      0.03%    100.00% # Class of executed instruction
system.switch_cpus1.op_class::IprAccess             0      0.00%    100.00% # Class of executed instruction
system.switch_cpus1.op_class::InstPrefetch            0      0.00%    100.00% # Class of executed instruction
system.switch_cpus1.op_class::total           2024684                       # Class of executed instruction
system.switch_cpus_10.branchPred.BTBCorrect            0                       # Number of correct BTB predictions (this stat may not work properly.
system.switch_cpus_10.branchPred.BTBHitPct     0.000000                       # BTB Hit Percentage
system.switch_cpus_10.branchPred.BTBHits            0                       # Number of BTB hits
system.switch_cpus_10.branchPred.BTBLookups       397697                       # Number of BTB lookups
system.switch_cpus_10.branchPred.RASInCorrect            0                       # Number of incorrect RAS predictions.
system.switch_cpus_10.branchPred.condIncorrect          493                       # Number of conditional branches incorrect
system.switch_cpus_10.branchPred.condPredicted       397818                       # Number of conditional branches predicted
system.switch_cpus_10.branchPred.indirectHits       397414                       # Number of indirect target hits.
system.switch_cpus_10.branchPred.indirectLookups       397697                       # Number of indirect predictor lookups.
system.switch_cpus_10.branchPred.indirectMisses          283                       # Number of indirect misses.
system.switch_cpus_10.branchPred.lookups       397835                       # Number of BP lookups
system.switch_cpus_10.branchPred.usedRAS           17                       # Number of times the RAS was used to get a target.
system.switch_cpus_10.branchPredindirectMispredicted           49                       # Number of mispredicted indirect branches.
system.switch_cpus_10.cc_regfile_reads        2374936                       # number of cc regfile reads
system.switch_cpus_10.cc_regfile_writes       4162621                       # number of cc regfile writes
system.switch_cpus_10.commit.amos                   0                       # Number of atomic instructions committed
system.switch_cpus_10.commit.branchMispredicts          493                       # The number of times a branch was mispredicted
system.switch_cpus_10.commit.branches          395696                       # Number of branches committed
system.switch_cpus_10.commit.bw_lim_events         7904                       # number cycles where commit BW limit reached
system.switch_cpus_10.commit.commitSquashedInsts         5346                       # The number of squashed insts skipped by commit
system.switch_cpus_10.commit.committedInsts      4291926                       # Number of instructions committed
system.switch_cpus_10.commit.committedOps      6985916                       # Number of ops (including micro ops) committed
system.switch_cpus_10.commit.committed_per_cycle::samples     56229545                       # Number of insts commited each cycle
system.switch_cpus_10.commit.committed_per_cycle::mean     0.124239                       # Number of insts commited each cycle
system.switch_cpus_10.commit.committed_per_cycle::stdev     0.616380                       # Number of insts commited each cycle
system.switch_cpus_10.commit.committed_per_cycle::underflows            0      0.00%      0.00% # Number of insts commited each cycle
system.switch_cpus_10.commit.committed_per_cycle::0     53007777     94.27%     94.27% # Number of insts commited each cycle
system.switch_cpus_10.commit.committed_per_cycle::1      1527551      2.72%     96.99% # Number of insts commited each cycle
system.switch_cpus_10.commit.committed_per_cycle::2       675014      1.20%     98.19% # Number of insts commited each cycle
system.switch_cpus_10.commit.committed_per_cycle::3       537360      0.96%     99.14% # Number of insts commited each cycle
system.switch_cpus_10.commit.committed_per_cycle::4        57838      0.10%     99.25% # Number of insts commited each cycle
system.switch_cpus_10.commit.committed_per_cycle::5       295140      0.52%     99.77% # Number of insts commited each cycle
system.switch_cpus_10.commit.committed_per_cycle::6       120754      0.21%     99.99% # Number of insts commited each cycle
system.switch_cpus_10.commit.committed_per_cycle::7          207      0.00%     99.99% # Number of insts commited each cycle
system.switch_cpus_10.commit.committed_per_cycle::8         7904      0.01%    100.00% # Number of insts commited each cycle
system.switch_cpus_10.commit.committed_per_cycle::overflows            0      0.00%    100.00% # Number of insts commited each cycle
system.switch_cpus_10.commit.committed_per_cycle::min_value            0                       # Number of insts commited each cycle
system.switch_cpus_10.commit.committed_per_cycle::max_value            8                       # Number of insts commited each cycle
system.switch_cpus_10.commit.committed_per_cycle::total     56229545                       # Number of insts commited each cycle
system.switch_cpus_10.commit.fp_insts               0                       # Number of committed floating point instructions.
system.switch_cpus_10.commit.function_calls            0                       # Number of function calls committed.
system.switch_cpus_10.commit.int_insts        6985518                       # Number of committed integer instructions.
system.switch_cpus_10.commit.loads             874453                       # Number of loads committed
system.switch_cpus_10.commit.membars                0                       # Number of memory barriers committed
system.switch_cpus_10.commit.op_class_0::No_OpClass           15      0.00%      0.00% # Class of committed instruction
system.switch_cpus_10.commit.op_class_0::IntAlu      4566292     65.36%     65.36% # Class of committed instruction
system.switch_cpus_10.commit.op_class_0::IntMult         1676      0.02%     65.39% # Class of committed instruction
system.switch_cpus_10.commit.op_class_0::IntDiv            0      0.00%     65.39% # Class of committed instruction
system.switch_cpus_10.commit.op_class_0::FloatAdd            0      0.00%     65.39% # Class of committed instruction
system.switch_cpus_10.commit.op_class_0::FloatCmp            0      0.00%     65.39% # Class of committed instruction
system.switch_cpus_10.commit.op_class_0::FloatCvt            0      0.00%     65.39% # Class of committed instruction
system.switch_cpus_10.commit.op_class_0::FloatMult            0      0.00%     65.39% # Class of committed instruction
system.switch_cpus_10.commit.op_class_0::FloatMultAcc            0      0.00%     65.39% # Class of committed instruction
system.switch_cpus_10.commit.op_class_0::FloatDiv            0      0.00%     65.39% # Class of committed instruction
system.switch_cpus_10.commit.op_class_0::FloatMisc            0      0.00%     65.39% # Class of committed instruction
system.switch_cpus_10.commit.op_class_0::FloatSqrt            0      0.00%     65.39% # Class of committed instruction
system.switch_cpus_10.commit.op_class_0::SimdAdd            0      0.00%     65.39% # Class of committed instruction
system.switch_cpus_10.commit.op_class_0::SimdAddAcc            0      0.00%     65.39% # Class of committed instruction
system.switch_cpus_10.commit.op_class_0::SimdAlu            0      0.00%     65.39% # Class of committed instruction
system.switch_cpus_10.commit.op_class_0::SimdCmp            0      0.00%     65.39% # Class of committed instruction
system.switch_cpus_10.commit.op_class_0::SimdCvt            0      0.00%     65.39% # Class of committed instruction
system.switch_cpus_10.commit.op_class_0::SimdMisc            0      0.00%     65.39% # Class of committed instruction
system.switch_cpus_10.commit.op_class_0::SimdMult            0      0.00%     65.39% # Class of committed instruction
system.switch_cpus_10.commit.op_class_0::SimdMultAcc            0      0.00%     65.39% # Class of committed instruction
system.switch_cpus_10.commit.op_class_0::SimdShift            0      0.00%     65.39% # Class of committed instruction
system.switch_cpus_10.commit.op_class_0::SimdShiftAcc            0      0.00%     65.39% # Class of committed instruction
system.switch_cpus_10.commit.op_class_0::SimdDiv            0      0.00%     65.39% # Class of committed instruction
system.switch_cpus_10.commit.op_class_0::SimdSqrt            0      0.00%     65.39% # Class of committed instruction
system.switch_cpus_10.commit.op_class_0::SimdFloatAdd            0      0.00%     65.39% # Class of committed instruction
system.switch_cpus_10.commit.op_class_0::SimdFloatAlu            0      0.00%     65.39% # Class of committed instruction
system.switch_cpus_10.commit.op_class_0::SimdFloatCmp            0      0.00%     65.39% # Class of committed instruction
system.switch_cpus_10.commit.op_class_0::SimdFloatCvt            0      0.00%     65.39% # Class of committed instruction
system.switch_cpus_10.commit.op_class_0::SimdFloatDiv            0      0.00%     65.39% # Class of committed instruction
system.switch_cpus_10.commit.op_class_0::SimdFloatMisc            0      0.00%     65.39% # Class of committed instruction
system.switch_cpus_10.commit.op_class_0::SimdFloatMult            0      0.00%     65.39% # Class of committed instruction
system.switch_cpus_10.commit.op_class_0::SimdFloatMultAcc            0      0.00%     65.39% # Class of committed instruction
system.switch_cpus_10.commit.op_class_0::SimdFloatSqrt            0      0.00%     65.39% # Class of committed instruction
system.switch_cpus_10.commit.op_class_0::SimdReduceAdd            0      0.00%     65.39% # Class of committed instruction
system.switch_cpus_10.commit.op_class_0::SimdReduceAlu            0      0.00%     65.39% # Class of committed instruction
system.switch_cpus_10.commit.op_class_0::SimdReduceCmp            0      0.00%     65.39% # Class of committed instruction
system.switch_cpus_10.commit.op_class_0::SimdFloatReduceAdd            0      0.00%     65.39% # Class of committed instruction
system.switch_cpus_10.commit.op_class_0::SimdFloatReduceCmp            0      0.00%     65.39% # Class of committed instruction
system.switch_cpus_10.commit.op_class_0::SimdAes            0      0.00%     65.39% # Class of committed instruction
system.switch_cpus_10.commit.op_class_0::SimdAesMix            0      0.00%     65.39% # Class of committed instruction
system.switch_cpus_10.commit.op_class_0::SimdSha1Hash            0      0.00%     65.39% # Class of committed instruction
system.switch_cpus_10.commit.op_class_0::SimdSha1Hash2            0      0.00%     65.39% # Class of committed instruction
system.switch_cpus_10.commit.op_class_0::SimdSha256Hash            0      0.00%     65.39% # Class of committed instruction
system.switch_cpus_10.commit.op_class_0::SimdSha256Hash2            0      0.00%     65.39% # Class of committed instruction
system.switch_cpus_10.commit.op_class_0::SimdShaSigma2            0      0.00%     65.39% # Class of committed instruction
system.switch_cpus_10.commit.op_class_0::SimdShaSigma3            0      0.00%     65.39% # Class of committed instruction
system.switch_cpus_10.commit.op_class_0::SimdPredAlu            0      0.00%     65.39% # Class of committed instruction
system.switch_cpus_10.commit.op_class_0::MemRead       874453     12.52%     77.91% # Class of committed instruction
system.switch_cpus_10.commit.op_class_0::MemWrite      1543480     22.09%    100.00% # Class of committed instruction
system.switch_cpus_10.commit.op_class_0::FloatMemRead            0      0.00%    100.00% # Class of committed instruction
system.switch_cpus_10.commit.op_class_0::FloatMemWrite            0      0.00%    100.00% # Class of committed instruction
system.switch_cpus_10.commit.op_class_0::IprAccess            0      0.00%    100.00% # Class of committed instruction
system.switch_cpus_10.commit.op_class_0::InstPrefetch            0      0.00%    100.00% # Class of committed instruction
system.switch_cpus_10.commit.op_class_0::total      6985916                       # Class of committed instruction
system.switch_cpus_10.commit.refs             2417933                       # Number of memory references committed
system.switch_cpus_10.commit.swp_count              0                       # Number of s/w prefetches committed
system.switch_cpus_10.commit.vec_insts              0                       # Number of committed Vector instructions.
system.switch_cpus_10.committedInsts          4291926                       # Number of Instructions Simulated
system.switch_cpus_10.committedOps            6985916                       # Number of Ops (including micro ops) Simulated
system.switch_cpus_10.cpi                   13.102937                       # CPI: Cycles Per Instruction
system.switch_cpus_10.cpi_total             13.102937                       # CPI: Total CPI of All Threads
system.switch_cpus_10.decode.BlockedCycles     55064581                       # Number of cycles decode is blocked
system.switch_cpus_10.decode.DecodedInsts      6996576                       # Number of instructions handled by decode
system.switch_cpus_10.decode.IdleCycles        289695                       # Number of cycles decode is idle
system.switch_cpus_10.decode.RunCycles          44881                       # Number of cycles decode is running
system.switch_cpus_10.decode.SquashCycles          512                       # Number of cycles decode is squashing
system.switch_cpus_10.decode.UnblockCycles       830720                       # Number of cycles decode is unblocking
system.switch_cpus_10.dtb.rdAccesses           875221                       # TLB accesses on read requests
system.switch_cpus_10.dtb.rdMisses                 44                       # TLB misses on read requests
system.switch_cpus_10.dtb.wrAccesses          1543672                       # TLB accesses on write requests
system.switch_cpus_10.dtb.wrMisses               3730                       # TLB misses on write requests
system.switch_cpus_10.fetch.Branches           397835                       # Number of branches that fetch encountered
system.switch_cpus_10.fetch.CacheLines         494248                       # Number of cache lines fetched
system.switch_cpus_10.fetch.Cycles           55238280                       # Number of cycles fetch has run and was not squashing or blocked
system.switch_cpus_10.fetch.IcacheSquashes          149                       # Number of outstanding Icache misses that were squashed
system.switch_cpus_10.fetch.Insts             4308187                       # Number of instructions fetch has processed
system.switch_cpus_10.fetch.SquashCycles         1024                       # Number of cycles fetch has spent squashing
system.switch_cpus_10.fetch.branchRate       0.007074                       # Number of branch fetches per cycle
system.switch_cpus_10.fetch.icacheStallCycles       991600                       # Number of cycles fetch is stalled on an Icache miss
system.switch_cpus_10.fetch.predictedBranches       397431                       # Number of branches that fetch has predicted taken
system.switch_cpus_10.fetch.rate             0.076608                       # Number of inst fetches per cycle
system.switch_cpus_10.fetch.rateDist::samples     56230392                       # Number of instructions fetched each cycle (Total)
system.switch_cpus_10.fetch.rateDist::mean     0.124692                       # Number of instructions fetched each cycle (Total)
system.switch_cpus_10.fetch.rateDist::stdev     0.905974                       # Number of instructions fetched each cycle (Total)
system.switch_cpus_10.fetch.rateDist::underflows            0      0.00%      0.00% # Number of instructions fetched each cycle (Total)
system.switch_cpus_10.fetch.rateDist::0      55012591     97.83%     97.83% # Number of instructions fetched each cycle (Total)
system.switch_cpus_10.fetch.rateDist::1         61063      0.11%     97.94% # Number of instructions fetched each cycle (Total)
system.switch_cpus_10.fetch.rateDist::2        107383      0.19%     98.13% # Number of instructions fetched each cycle (Total)
system.switch_cpus_10.fetch.rateDist::3         61769      0.11%     98.24% # Number of instructions fetched each cycle (Total)
system.switch_cpus_10.fetch.rateDist::4        144007      0.26%     98.50% # Number of instructions fetched each cycle (Total)
system.switch_cpus_10.fetch.rateDist::5        196117      0.35%     98.85% # Number of instructions fetched each cycle (Total)
system.switch_cpus_10.fetch.rateDist::6         63107      0.11%     98.96% # Number of instructions fetched each cycle (Total)
system.switch_cpus_10.fetch.rateDist::7         59773      0.11%     99.07% # Number of instructions fetched each cycle (Total)
system.switch_cpus_10.fetch.rateDist::8        524582      0.93%    100.00% # Number of instructions fetched each cycle (Total)
system.switch_cpus_10.fetch.rateDist::overflows            0      0.00%    100.00% # Number of instructions fetched each cycle (Total)
system.switch_cpus_10.fetch.rateDist::min_value            0                       # Number of instructions fetched each cycle (Total)
system.switch_cpus_10.fetch.rateDist::max_value            8                       # Number of instructions fetched each cycle (Total)
system.switch_cpus_10.fetch.rateDist::total     56230392                       # Number of instructions fetched each cycle (Total)
system.switch_cpus_10.fp_regfile_writes            56                       # number of floating regfile writes
system.switch_cpus_10.idleCycles                 6442                       # Total number of cycles that the CPU has spent unscheduled due to idling
system.switch_cpus_10.iew.branchMispredicts          514                       # Number of branch mispredicts detected at execute
system.switch_cpus_10.iew.exec_branches        395761                       # Number of branches executed
system.switch_cpus_10.iew.exec_nop                  0                       # number of nop insts executed
system.switch_cpus_10.iew.exec_rate          0.124347                       # Inst execution rate
system.switch_cpus_10.iew.exec_refs           2423205                       # number of memory reference insts executed
system.switch_cpus_10.iew.exec_stores         1543672                       # Number of stores executed
system.switch_cpus_10.iew.exec_swp                  0                       # number of swp insts executed
system.switch_cpus_10.iew.iewBlockCycles         5038                       # Number of cycles IEW is blocking
system.switch_cpus_10.iew.iewDispLoadInsts       875363                       # Number of dispatched load instructions
system.switch_cpus_10.iew.iewDispNonSpecInsts            0                       # Number of dispatched non-speculative instructions
system.switch_cpus_10.iew.iewDispSquashedInsts          478                       # Number of squashed instructions skipped by dispatch
system.switch_cpus_10.iew.iewDispStoreInsts      1544023                       # Number of dispatched store instructions
system.switch_cpus_10.iew.iewDispatchedInsts      6991252                       # Number of instructions dispatched to IQ
system.switch_cpus_10.iew.iewExecLoadInsts       879533                       # Number of load instructions executed
system.switch_cpus_10.iew.iewExecSquashedInsts         1244                       # Number of squashed instructions skipped in execute
system.switch_cpus_10.iew.iewExecutedInsts      6992878                       # Number of executed instructions
system.switch_cpus_10.iew.iewIQFullEvents           70                       # Number of times the IQ has become full, causing a stall
system.switch_cpus_10.iew.iewIdleCycles             0                       # Number of cycles IEW is idle
system.switch_cpus_10.iew.iewLSQFullEvents     22947063                       # Number of times the LSQ has become full, causing a stall
system.switch_cpus_10.iew.iewSquashCycles          512                       # Number of cycles IEW is squashing
system.switch_cpus_10.iew.iewUnblockCycles     22961557                       # Number of cycles IEW is unblocking
system.switch_cpus_10.iew.lsq.thread0.blockedLoads            0                       # Number of blocked loads due to partial load-store forwarding
system.switch_cpus_10.iew.lsq.thread0.cacheBlocked          616                       # Number of times an access to memory failed due to the cache being blocked
system.switch_cpus_10.iew.lsq.thread0.forwLoads       233421                       # Number of loads that had data forwarded from stores
system.switch_cpus_10.iew.lsq.thread0.ignoredResponses            0                       # Number of memory responses ignored because the instruction is squashed
system.switch_cpus_10.iew.lsq.thread0.invAddrLoads            0                       # Number of loads ignored due to an invalid address
system.switch_cpus_10.iew.lsq.thread0.invAddrSwpfs            0                       # Number of software prefetches ignored due to an invalid address
system.switch_cpus_10.iew.lsq.thread0.memOrderViolation           19                       # Number of memory ordering violations
system.switch_cpus_10.iew.lsq.thread0.rescheduledLoads            0                       # Number of loads that were rescheduled
system.switch_cpus_10.iew.lsq.thread0.squashedLoads          910                       # Number of loads squashed
system.switch_cpus_10.iew.lsq.thread0.squashedStores          543                       # Number of stores squashed
system.switch_cpus_10.iew.memOrderViolationEvents           19                       # Number of memory order violations
system.switch_cpus_10.iew.predictedNotTakenIncorrect          115                       # Number of branches that were predicted not taken incorrectly
system.switch_cpus_10.iew.predictedTakenIncorrect          399                       # Number of branches that were predicted taken incorrectly
system.switch_cpus_10.iew.wb_consumers        2738264                       # num instructions consuming a value
system.switch_cpus_10.iew.wb_count            6988034                       # cumulative count of insts written-back
system.switch_cpus_10.iew.wb_fanout          0.798190                       # average fanout of values written-back
system.switch_cpus_10.iew.wb_producers        2185656                       # num instructions producing a value
system.switch_cpus_10.iew.wb_rate            0.124261                       # insts written-back per cycle
system.switch_cpus_10.iew.wb_sent             6988061                       # cumulative count of insts sent to commit
system.switch_cpus_10.int_regfile_reads      10987909                       # number of integer regfile reads
system.switch_cpus_10.int_regfile_writes      5049911                       # number of integer regfile writes
system.switch_cpus_10.ipc                    0.076319                       # IPC: Instructions Per Cycle
system.switch_cpus_10.ipc_total              0.076319                       # IPC: Total IPC of All Threads
system.switch_cpus_10.iq.FU_type_0::No_OpClass           23      0.00%      0.00% # Type of FU issued
system.switch_cpus_10.iq.FU_type_0::IntAlu      4568850     65.32%     65.32% # Type of FU issued
system.switch_cpus_10.iq.FU_type_0::IntMult         1690      0.02%     65.35% # Type of FU issued
system.switch_cpus_10.iq.FU_type_0::IntDiv            0      0.00%     65.35% # Type of FU issued
system.switch_cpus_10.iq.FU_type_0::FloatAdd            0      0.00%     65.35% # Type of FU issued
system.switch_cpus_10.iq.FU_type_0::FloatCmp            0      0.00%     65.35% # Type of FU issued
system.switch_cpus_10.iq.FU_type_0::FloatCvt            0      0.00%     65.35% # Type of FU issued
system.switch_cpus_10.iq.FU_type_0::FloatMult            0      0.00%     65.35% # Type of FU issued
system.switch_cpus_10.iq.FU_type_0::FloatMultAcc            0      0.00%     65.35% # Type of FU issued
system.switch_cpus_10.iq.FU_type_0::FloatDiv            0      0.00%     65.35% # Type of FU issued
system.switch_cpus_10.iq.FU_type_0::FloatMisc            0      0.00%     65.35% # Type of FU issued
system.switch_cpus_10.iq.FU_type_0::FloatSqrt            0      0.00%     65.35% # Type of FU issued
system.switch_cpus_10.iq.FU_type_0::SimdAdd            0      0.00%     65.35% # Type of FU issued
system.switch_cpus_10.iq.FU_type_0::SimdAddAcc            0      0.00%     65.35% # Type of FU issued
system.switch_cpus_10.iq.FU_type_0::SimdAlu            0      0.00%     65.35% # Type of FU issued
system.switch_cpus_10.iq.FU_type_0::SimdCmp            0      0.00%     65.35% # Type of FU issued
system.switch_cpus_10.iq.FU_type_0::SimdCvt            0      0.00%     65.35% # Type of FU issued
system.switch_cpus_10.iq.FU_type_0::SimdMisc            0      0.00%     65.35% # Type of FU issued
system.switch_cpus_10.iq.FU_type_0::SimdMult            0      0.00%     65.35% # Type of FU issued
system.switch_cpus_10.iq.FU_type_0::SimdMultAcc            0      0.00%     65.35% # Type of FU issued
system.switch_cpus_10.iq.FU_type_0::SimdShift            0      0.00%     65.35% # Type of FU issued
system.switch_cpus_10.iq.FU_type_0::SimdShiftAcc            0      0.00%     65.35% # Type of FU issued
system.switch_cpus_10.iq.FU_type_0::SimdDiv            0      0.00%     65.35% # Type of FU issued
system.switch_cpus_10.iq.FU_type_0::SimdSqrt            0      0.00%     65.35% # Type of FU issued
system.switch_cpus_10.iq.FU_type_0::SimdFloatAdd            0      0.00%     65.35% # Type of FU issued
system.switch_cpus_10.iq.FU_type_0::SimdFloatAlu            0      0.00%     65.35% # Type of FU issued
system.switch_cpus_10.iq.FU_type_0::SimdFloatCmp            0      0.00%     65.35% # Type of FU issued
system.switch_cpus_10.iq.FU_type_0::SimdFloatCvt            0      0.00%     65.35% # Type of FU issued
system.switch_cpus_10.iq.FU_type_0::SimdFloatDiv            0      0.00%     65.35% # Type of FU issued
system.switch_cpus_10.iq.FU_type_0::SimdFloatMisc            0      0.00%     65.35% # Type of FU issued
system.switch_cpus_10.iq.FU_type_0::SimdFloatMult            0      0.00%     65.35% # Type of FU issued
system.switch_cpus_10.iq.FU_type_0::SimdFloatMultAcc            0      0.00%     65.35% # Type of FU issued
system.switch_cpus_10.iq.FU_type_0::SimdFloatSqrt            0      0.00%     65.35% # Type of FU issued
system.switch_cpus_10.iq.FU_type_0::SimdReduceAdd            0      0.00%     65.35% # Type of FU issued
system.switch_cpus_10.iq.FU_type_0::SimdReduceAlu            0      0.00%     65.35% # Type of FU issued
system.switch_cpus_10.iq.FU_type_0::SimdReduceCmp            0      0.00%     65.35% # Type of FU issued
system.switch_cpus_10.iq.FU_type_0::SimdFloatReduceAdd            0      0.00%     65.35% # Type of FU issued
system.switch_cpus_10.iq.FU_type_0::SimdFloatReduceCmp            0      0.00%     65.35% # Type of FU issued
system.switch_cpus_10.iq.FU_type_0::SimdAes            0      0.00%     65.35% # Type of FU issued
system.switch_cpus_10.iq.FU_type_0::SimdAesMix            0      0.00%     65.35% # Type of FU issued
system.switch_cpus_10.iq.FU_type_0::SimdSha1Hash            0      0.00%     65.35% # Type of FU issued
system.switch_cpus_10.iq.FU_type_0::SimdSha1Hash2            0      0.00%     65.35% # Type of FU issued
system.switch_cpus_10.iq.FU_type_0::SimdSha256Hash            0      0.00%     65.35% # Type of FU issued
system.switch_cpus_10.iq.FU_type_0::SimdSha256Hash2            0      0.00%     65.35% # Type of FU issued
system.switch_cpus_10.iq.FU_type_0::SimdShaSigma2            0      0.00%     65.35% # Type of FU issued
system.switch_cpus_10.iq.FU_type_0::SimdShaSigma3            0      0.00%     65.35% # Type of FU issued
system.switch_cpus_10.iq.FU_type_0::SimdPredAlu            0      0.00%     65.35% # Type of FU issued
system.switch_cpus_10.iq.FU_type_0::MemRead       879634     12.58%     77.93% # Type of FU issued
system.switch_cpus_10.iq.FU_type_0::MemWrite      1543925     22.07%    100.00% # Type of FU issued
system.switch_cpus_10.iq.FU_type_0::FloatMemRead            0      0.00%    100.00% # Type of FU issued
system.switch_cpus_10.iq.FU_type_0::FloatMemWrite            0      0.00%    100.00% # Type of FU issued
system.switch_cpus_10.iq.FU_type_0::IprAccess            0      0.00%    100.00% # Type of FU issued
system.switch_cpus_10.iq.FU_type_0::InstPrefetch            0      0.00%    100.00% # Type of FU issued
system.switch_cpus_10.iq.FU_type_0::total      6994122                       # Type of FU issued
system.switch_cpus_10.iq.fp_alu_accesses            0                       # Number of floating point alu accesses
system.switch_cpus_10.iq.fp_inst_queue_reads            0                       # Number of floating instruction queue reads
system.switch_cpus_10.iq.fp_inst_queue_wakeup_accesses            0                       # Number of floating instruction queue wakeup accesses
system.switch_cpus_10.iq.fp_inst_queue_writes            0                       # Number of floating instruction queue writes
system.switch_cpus_10.iq.fu_busy_cnt            14279                       # FU busy when requested
system.switch_cpus_10.iq.fu_busy_rate        0.002042                       # FU busy rate (busy events/executed inst)
system.switch_cpus_10.iq.fu_full::No_OpClass            0      0.00%      0.00% # attempts to use FU when none available
system.switch_cpus_10.iq.fu_full::IntAlu           10      0.07%      0.07% # attempts to use FU when none available
system.switch_cpus_10.iq.fu_full::IntMult            0      0.00%      0.07% # attempts to use FU when none available
system.switch_cpus_10.iq.fu_full::IntDiv            0      0.00%      0.07% # attempts to use FU when none available
system.switch_cpus_10.iq.fu_full::FloatAdd            0      0.00%      0.07% # attempts to use FU when none available
system.switch_cpus_10.iq.fu_full::FloatCmp            0      0.00%      0.07% # attempts to use FU when none available
system.switch_cpus_10.iq.fu_full::FloatCvt            0      0.00%      0.07% # attempts to use FU when none available
system.switch_cpus_10.iq.fu_full::FloatMult            0      0.00%      0.07% # attempts to use FU when none available
system.switch_cpus_10.iq.fu_full::FloatMultAcc            0      0.00%      0.07% # attempts to use FU when none available
system.switch_cpus_10.iq.fu_full::FloatDiv            0      0.00%      0.07% # attempts to use FU when none available
system.switch_cpus_10.iq.fu_full::FloatMisc            0      0.00%      0.07% # attempts to use FU when none available
system.switch_cpus_10.iq.fu_full::FloatSqrt            0      0.00%      0.07% # attempts to use FU when none available
system.switch_cpus_10.iq.fu_full::SimdAdd            0      0.00%      0.07% # attempts to use FU when none available
system.switch_cpus_10.iq.fu_full::SimdAddAcc            0      0.00%      0.07% # attempts to use FU when none available
system.switch_cpus_10.iq.fu_full::SimdAlu            0      0.00%      0.07% # attempts to use FU when none available
system.switch_cpus_10.iq.fu_full::SimdCmp            0      0.00%      0.07% # attempts to use FU when none available
system.switch_cpus_10.iq.fu_full::SimdCvt            0      0.00%      0.07% # attempts to use FU when none available
system.switch_cpus_10.iq.fu_full::SimdMisc            0      0.00%      0.07% # attempts to use FU when none available
system.switch_cpus_10.iq.fu_full::SimdMult            0      0.00%      0.07% # attempts to use FU when none available
system.switch_cpus_10.iq.fu_full::SimdMultAcc            0      0.00%      0.07% # attempts to use FU when none available
system.switch_cpus_10.iq.fu_full::SimdShift            0      0.00%      0.07% # attempts to use FU when none available
system.switch_cpus_10.iq.fu_full::SimdShiftAcc            0      0.00%      0.07% # attempts to use FU when none available
system.switch_cpus_10.iq.fu_full::SimdDiv            0      0.00%      0.07% # attempts to use FU when none available
system.switch_cpus_10.iq.fu_full::SimdSqrt            0      0.00%      0.07% # attempts to use FU when none available
system.switch_cpus_10.iq.fu_full::SimdFloatAdd            0      0.00%      0.07% # attempts to use FU when none available
system.switch_cpus_10.iq.fu_full::SimdFloatAlu            0      0.00%      0.07% # attempts to use FU when none available
system.switch_cpus_10.iq.fu_full::SimdFloatCmp            0      0.00%      0.07% # attempts to use FU when none available
system.switch_cpus_10.iq.fu_full::SimdFloatCvt            0      0.00%      0.07% # attempts to use FU when none available
system.switch_cpus_10.iq.fu_full::SimdFloatDiv            0      0.00%      0.07% # attempts to use FU when none available
system.switch_cpus_10.iq.fu_full::SimdFloatMisc            0      0.00%      0.07% # attempts to use FU when none available
system.switch_cpus_10.iq.fu_full::SimdFloatMult            0      0.00%      0.07% # attempts to use FU when none available
system.switch_cpus_10.iq.fu_full::SimdFloatMultAcc            0      0.00%      0.07% # attempts to use FU when none available
system.switch_cpus_10.iq.fu_full::SimdFloatSqrt            0      0.00%      0.07% # attempts to use FU when none available
system.switch_cpus_10.iq.fu_full::SimdReduceAdd            0      0.00%      0.07% # attempts to use FU when none available
system.switch_cpus_10.iq.fu_full::SimdReduceAlu            0      0.00%      0.07% # attempts to use FU when none available
system.switch_cpus_10.iq.fu_full::SimdReduceCmp            0      0.00%      0.07% # attempts to use FU when none available
system.switch_cpus_10.iq.fu_full::SimdFloatReduceAdd            0      0.00%      0.07% # attempts to use FU when none available
system.switch_cpus_10.iq.fu_full::SimdFloatReduceCmp            0      0.00%      0.07% # attempts to use FU when none available
[...]
system.cpu1.l2cache.tags.pwrStateResidencyTicks::UNDEFINED 1319121680031                       # Cumulative time (in ticks) in various power states
system.cpu1.l2cache.tags.tagsinuse          72.385859                       # Cycle average of tags in use
system.cpu1.l2cache.tags.total_refs            113218                       # Total number of references to valid blocks.
system.cpu1.l2cache.tags.sampled_refs           30354                       # Sample count of references to valid blocks.
system.cpu1.l2cache.tags.avg_refs            3.729920                       # Average number of references to valid blocks.
system.cpu1.l2cache.tags.warmup_cycle    1293351708033                       # Cycle when the warmup percentage was hit.
system.cpu1.l2cache.tags.occ_blocks::.cpu1.inst     0.003598                       # Average occupied blocks per requestor
system.cpu1.l2cache.tags.occ_blocks::.cpu1.data     0.019536                       # Average occupied blocks per requestor
system.cpu1.l2cache.tags.occ_blocks::.switch_cpus1.inst     0.676738                       # Average occupied blocks per requestor
system.cpu1.l2cache.tags.occ_blocks::.switch_cpus1.data    10.788278                       # Average occupied blocks per requestor
system.cpu1.l2cache.tags.occ_blocks::.switch_cpus_11.inst     0.174253                       # Average occupied blocks per requestor
system.cpu1.l2cache.tags.occ_blocks::.switch_cpus_11.data    60.723456                       # Average occupied blocks per requestor
system.cpu1.l2cache.tags.occ_percent::.cpu1.inst     0.000001                       # Average percentage of cache occupancy
system.cpu1.l2cache.tags.occ_percent::.cpu1.data     0.000005                       # Average percentage of cache occupancy
system.cpu1.l2cache.tags.occ_percent::.switch_cpus1.inst     0.000165                       # Average percentage of cache occupancy
system.cpu1.l2cache.tags.occ_percent::.switch_cpus1.data     0.002634                       # Average percentage of cache occupancy
system.cpu1.l2cache.tags.occ_percent::.switch_cpus_11.inst     0.000043                       # Average percentage of cache occupancy
system.cpu1.l2cache.tags.occ_percent::.switch_cpus_11.data     0.014825                       # Average percentage of cache occupancy
system.cpu1.l2cache.tags.occ_percent::total     0.017672                       # Average percentage of cache occupancy
system.cpu1.l2cache.tags.occ_task_id_blocks::1024         4096                       # Occupied blocks per task id
system.cpu1.l2cache.tags.age_task_id_blocks_1024::0            1                       # Occupied blocks per task id
system.cpu1.l2cache.tags.age_task_id_blocks_1024::1           81                       # Occupied blocks per task id
system.cpu1.l2cache.tags.age_task_id_blocks_1024::2         1119                       # Occupied blocks per task id
system.cpu1.l2cache.tags.age_task_id_blocks_1024::3         2387                       # Occupied blocks per task id
system.cpu1.l2cache.tags.age_task_id_blocks_1024::4          508                       # Occupied blocks per task id
system.cpu1.l2cache.tags.occ_task_id_percent::1024            1                       # Percentage of cache occupancy per task id
system.cpu1.l2cache.tags.tag_accesses         1841890                       # Number of tag accesses
system.cpu1.l2cache.tags.data_accesses        1841890                       # Number of data accesses
system.cpu1.toL2Bus.pwrStateResidencyTicks::UNDEFINED 1319121680031                       # Cumulative time (in ticks) in various power states
system.cpu1.toL2Bus.trans_dist::ReadResp        56883                       # Transaction distribution
system.cpu1.toL2Bus.trans_dist::WritebackDirty          185                       # Transaction distribution
system.cpu1.toL2Bus.trans_dist::CleanEvict        82549                       # Transaction distribution
system.cpu1.toL2Bus.trans_dist::ReadExReq          148                       # Transaction distribution
system.cpu1.toL2Bus.trans_dist::ReadExResp          148                       # Transaction distribution
system.cpu1.toL2Bus.trans_dist::ReadCleanReq          285                       # Transaction distribution
system.cpu1.toL2Bus.trans_dist::ReadSharedReq        56598                       # Transaction distribution
system.cpu1.toL2Bus.pkt_count_system.cpu1.icache.mem_side::system.cpu1.l2cache.cpu_side          570                       # Packet count per connected master and slave (bytes)
system.cpu1.toL2Bus.pkt_count_system.cpu1.dcache.mem_side::system.cpu1.l2cache.cpu_side       169726                       # Packet count per connected master and slave (bytes)
system.cpu1.toL2Bus.pkt_count::total           170296                       # Packet count per connected master and slave (bytes)
system.cpu1.toL2Bus.pkt_size_system.cpu1.icache.mem_side::system.cpu1.l2cache.cpu_side        18240                       # Cumulative packet size per connected master and slave (bytes)
system.cpu1.toL2Bus.pkt_size_system.cpu1.dcache.mem_side::system.cpu1.l2cache.cpu_side      3643072                       # Cumulative packet size per connected master and slave (bytes)
system.cpu1.toL2Bus.pkt_size::total           3661312                       # Cumulative packet size per connected master and slave (bytes)
system.cpu1.toL2Bus.snoops                      26500                       # Total snoops (count)
system.cpu1.toL2Bus.snoopTraffic                  512                       # Total snoop traffic (bytes)
system.cpu1.toL2Bus.snoop_fanout::samples        83531                       # Request fanout histogram
system.cpu1.toL2Bus.snoop_fanout::mean       0.006572                       # Request fanout histogram
system.cpu1.toL2Bus.snoop_fanout::stdev      0.080804                       # Request fanout histogram
system.cpu1.toL2Bus.snoop_fanout::underflows            0      0.00%      0.00% # Request fanout histogram
system.cpu1.toL2Bus.snoop_fanout::0             82982     99.34%     99.34% # Request fanout histogram
system.cpu1.toL2Bus.snoop_fanout::1               549      0.66%    100.00% # Request fanout histogram
system.cpu1.toL2Bus.snoop_fanout::2                 0      0.00%    100.00% # Request fanout histogram
system.cpu1.toL2Bus.snoop_fanout::3                 0      0.00%    100.00% # Request fanout histogram
system.cpu1.toL2Bus.snoop_fanout::4                 0      0.00%    100.00% # Request fanout histogram
system.cpu1.toL2Bus.snoop_fanout::overflows            0      0.00%    100.00% # Request fanout histogram
system.cpu1.toL2Bus.snoop_fanout::min_value            0                       # Request fanout histogram
system.cpu1.toL2Bus.snoop_fanout::max_value            1                       # Request fanout histogram
system.cpu1.toL2Bus.snoop_fanout::total         83531                       # Request fanout histogram
system.cpu1.toL2Bus.reqLayer0.occupancy      47378289                       # Layer occupancy (ticks)
system.cpu1.toL2Bus.reqLayer0.utilization          0.2                       # Layer utilization (%)
system.cpu1.toL2Bus.respLayer1.occupancy     70987995                       # Layer occupancy (ticks)
system.cpu1.toL2Bus.respLayer1.utilization          0.3                       # Layer utilization (%)
system.cpu1.toL2Bus.respLayer0.occupancy       355284                       # Layer occupancy (ticks)
system.cpu1.toL2Bus.respLayer0.utilization          0.0                       # Layer utilization (%)
system.switch_cpus_10.pwrStateResidencyTicks::OFF  25769972415                       # Cumulative time (in ticks) in various power states
system.switch_cpus_10.dtb.walker.pwrStateResidencyTicks::UNDEFINED 1319121680031                       # Cumulative time (in ticks) in various power states
system.switch_cpus_10.itb.walker.pwrStateResidencyTicks::UNDEFINED 1319121680031                       # Cumulative time (in ticks) in various power states
system.switch_cpus_11.pwrStateResidencyTicks::OFF  25769972415                       # Cumulative time (in ticks) in various power states
system.switch_cpus_11.dtb.walker.pwrStateResidencyTicks::UNDEFINED 1319121680031                       # Cumulative time (in ticks) in various power states
system.switch_cpus_11.itb.walker.pwrStateResidencyTicks::UNDEFINED 1319121680031                       # Cumulative time (in ticks) in various power states
system.cpu_voltage_domain.voltage                   1                       # Voltage in Volts
system.switch_cpus1.numPwrStateTransitions            1                       # Number of power state transitions
system.switch_cpus1.pwrStateResidencyTicks::UNDEFINED 1293351707616                       # Cumulative time (in ticks) in various power states
system.switch_cpus1.pwrStateResidencyTicks::OFF  25769972415                       # Cumulative time (in ticks) in various power states
system.switch_cpus1.dtb.walker.pwrStateResidencyTicks::UNDEFINED 1319121680031                       # Cumulative time (in ticks) in various power states
system.switch_cpus1.itb.walker.pwrStateResidencyTicks::UNDEFINED 1319121680031                       # Cumulative time (in ticks) in various power states
system.mem_ctrls.pwrStateResidencyTicks::UNDEFINED 1319121680031                       # Cumulative time (in ticks) in various power states
system.mem_ctrls.bytes_read::.cpu0.inst            64                       # Number of bytes read from this memory
system.mem_ctrls.bytes_read::.cpu0.data           128                       # Number of bytes read from this memory
system.mem_ctrls.bytes_read::.cpu1.inst            64                       # Number of bytes read from this memory
system.mem_ctrls.bytes_read::.cpu1.data            64                       # Number of bytes read from this memory
system.mem_ctrls.bytes_read::.switch_cpus0.inst         1536                       # Number of bytes read from this memory
system.mem_ctrls.bytes_read::.switch_cpus0.data       784000                       # Number of bytes read from this memory
system.mem_ctrls.bytes_read::.switch_cpus1.inst        12672                       # Number of bytes read from this memory
system.mem_ctrls.bytes_read::.switch_cpus1.data        78784                       # Number of bytes read from this memory
system.mem_ctrls.bytes_read::.switch_cpus_10.inst         3584                       # Number of bytes read from this memory
system.mem_ctrls.bytes_read::.switch_cpus_10.data     10320640                       # Number of bytes read from this memory
system.mem_ctrls.bytes_read::.switch_cpus_11.inst         5504                       # Number of bytes read from this memory
system.mem_ctrls.bytes_read::.switch_cpus_11.data      1843968                       # Number of bytes read from this memory
system.mem_ctrls.bytes_read::total           13051008                       # Number of bytes read from this memory
system.mem_ctrls.bytes_inst_read::.cpu0.inst           64                       # Number of instructions bytes read from this memory
system.mem_ctrls.bytes_inst_read::.cpu1.inst           64                       # Number of instructions bytes read from this memory
system.mem_ctrls.bytes_inst_read::.switch_cpus0.inst         1536                       # Number of instructions bytes read from this memory
system.mem_ctrls.bytes_inst_read::.switch_cpus1.inst        12672                       # Number of instructions bytes read from this memory
system.mem_ctrls.bytes_inst_read::.switch_cpus_10.inst         3584                       # Number of instructions bytes read from this memory
system.mem_ctrls.bytes_inst_read::.switch_cpus_11.inst         5504                       # Number of instructions bytes read from this memory
system.mem_ctrls.bytes_inst_read::total         23424                       # Number of instructions bytes read from this memory
system.mem_ctrls.bytes_written::.cpu0.data           64                       # Number of bytes written to this memory
system.mem_ctrls.bytes_written::.switch_cpus0.data       782912                       # Number of bytes written to this memory
system.mem_ctrls.bytes_written::.switch_cpus1.data          128                       # Number of bytes written to this memory
system.mem_ctrls.bytes_written::.switch_cpus_10.data      8217216                       # Number of bytes written to this memory
system.mem_ctrls.bytes_written::total         9000320                       # Number of bytes written to this memory
system.mem_ctrls.num_reads::.cpu0.inst              1                       # Number of read requests responded to by this memory
system.mem_ctrls.num_reads::.cpu0.data              2                       # Number of read requests responded to by this memory
system.mem_ctrls.num_reads::.cpu1.inst              1                       # Number of read requests responded to by this memory
system.mem_ctrls.num_reads::.cpu1.data              1                       # Number of read requests responded to by this memory
system.mem_ctrls.num_reads::.switch_cpus0.inst           24                       # Number of read requests responded to by this memory
system.mem_ctrls.num_reads::.switch_cpus0.data        12250                       # Number of read requests responded to by this memory
system.mem_ctrls.num_reads::.switch_cpus1.inst          198                       # Number of read requests responded to by this memory
system.mem_ctrls.num_reads::.switch_cpus1.data         1231                       # Number of read requests responded to by this memory
system.mem_ctrls.num_reads::.switch_cpus_10.inst           56                       # Number of read requests responded to by this memory
system.mem_ctrls.num_reads::.switch_cpus_10.data       161260                       # Number of read requests responded to by this memory
system.mem_ctrls.num_reads::.switch_cpus_11.inst           86                       # Number of read requests responded to by this memory
system.mem_ctrls.num_reads::.switch_cpus_11.data        28812                       # Number of read requests responded to by this memory
system.mem_ctrls.num_reads::total              203922                       # Number of read requests responded to by this memory
system.mem_ctrls.num_writes::.cpu0.data             1                       # Number of write requests responded to by this memory
system.mem_ctrls.num_writes::.switch_cpus0.data        12233                       # Number of write requests responded to by this memory
system.mem_ctrls.num_writes::.switch_cpus1.data            2                       # Number of write requests responded to by this memory
system.mem_ctrls.num_writes::.switch_cpus_10.data       128394                       # Number of write requests responded to by this memory
system.mem_ctrls.num_writes::total             140630                       # Number of write requests responded to by this memory
system.mem_ctrls.bw_read::.cpu0.inst             2484                       # Total read bandwidth from this memory (bytes/s)
system.mem_ctrls.bw_read::.cpu0.data             4967                       # Total read bandwidth from this memory (bytes/s)
system.mem_ctrls.bw_read::.cpu1.inst             2484                       # Total read bandwidth from this memory (bytes/s)
system.mem_ctrls.bw_read::.cpu1.data             2484                       # Total read bandwidth from this memory (bytes/s)
system.mem_ctrls.bw_read::.switch_cpus0.inst        59604                       # Total read bandwidth from this memory (bytes/s)
system.mem_ctrls.bw_read::.switch_cpus0.data     30423005                       # Total read bandwidth from this memory (bytes/s)
system.mem_ctrls.bw_read::.switch_cpus1.inst       491735                       # Total read bandwidth from this memory (bytes/s)
system.mem_ctrls.bw_read::.switch_cpus1.data      3057202                       # Total read bandwidth from this memory (bytes/s)
system.mem_ctrls.bw_read::.switch_cpus_10.inst       139077                       # Total read bandwidth from this memory (bytes/s)
system.mem_ctrls.bw_read::.switch_cpus_10.data    400490922                       # Total read bandwidth from this memory (bytes/s)
system.mem_ctrls.bw_read::.switch_cpus_11.inst       213582                       # Total read bandwidth from this memory (bytes/s)
system.mem_ctrls.bw_read::.switch_cpus_11.data     71554908                       # Total read bandwidth from this memory (bytes/s)
system.mem_ctrls.bw_read::total             506442451                       # Total read bandwidth from this memory (bytes/s)
system.mem_ctrls.bw_inst_read::.cpu0.inst         2484                       # Instruction read bandwidth from this memory (bytes/s)
system.mem_ctrls.bw_inst_read::.cpu1.inst         2484                       # Instruction read bandwidth from this memory (bytes/s)
system.mem_ctrls.bw_inst_read::.switch_cpus0.inst        59604                       # Instruction read bandwidth from this memory (bytes/s)
system.mem_ctrls.bw_inst_read::.switch_cpus1.inst       491735                       # Instruction read bandwidth from this memory (bytes/s)
system.mem_ctrls.bw_inst_read::.switch_cpus_10.inst       139077                       # Instruction read bandwidth from this memory (bytes/s)
system.mem_ctrls.bw_inst_read::.switch_cpus_11.inst       213582                       # Instruction read bandwidth from this memory (bytes/s)
system.mem_ctrls.bw_inst_read::total           908965                       # Instruction read bandwidth from this memory (bytes/s)
system.mem_ctrls.bw_write::.cpu0.data            2484                       # Write bandwidth from this memory (bytes/s)
system.mem_ctrls.bw_write::.switch_cpus0.data     30380785                       # Write bandwidth from this memory (bytes/s)
system.mem_ctrls.bw_write::.switch_cpus1.data         4967                       # Write bandwidth from this memory (bytes/s)
system.mem_ctrls.bw_write::.switch_cpus_10.data    318867862                       # Write bandwidth from this memory (bytes/s)
system.mem_ctrls.bw_write::total            349256098                       # Write bandwidth from this memory (bytes/s)
system.mem_ctrls.bw_total::.cpu0.inst            2484                       # Total bandwidth to/from this memory (bytes/s)
system.mem_ctrls.bw_total::.cpu0.data            7451                       # Total bandwidth to/from this memory (bytes/s)
system.mem_ctrls.bw_total::.cpu1.inst            2484                       # Total bandwidth to/from this memory (bytes/s)
system.mem_ctrls.bw_total::.cpu1.data            2484                       # Total bandwidth to/from this memory (bytes/s)
system.mem_ctrls.bw_total::.switch_cpus0.inst        59604                       # Total bandwidth to/from this memory (bytes/s)
system.mem_ctrls.bw_total::.switch_cpus0.data     60803790                       # Total bandwidth to/from this memory (bytes/s)
system.mem_ctrls.bw_total::.switch_cpus1.inst       491735                       # Total bandwidth to/from this memory (bytes/s)
system.mem_ctrls.bw_total::.switch_cpus1.data      3062169                       # Total bandwidth to/from this memory (bytes/s)
system.mem_ctrls.bw_total::.switch_cpus_10.inst       139077                       # Total bandwidth to/from this memory (bytes/s)
system.mem_ctrls.bw_total::.switch_cpus_10.data    719358783                       # Total bandwidth to/from this memory (bytes/s)
system.mem_ctrls.bw_total::.switch_cpus_11.inst       213582                       # Total bandwidth to/from this memory (bytes/s)
system.mem_ctrls.bw_total::.switch_cpus_11.data     71554908                       # Total bandwidth to/from this memory (bytes/s)
system.mem_ctrls.bw_total::total            855698549                       # Total bandwidth to/from this memory (bytes/s)
system.cpu_clk_domain.clock                       417                       # Clock period in ticks

---------- End Simulation Statistics   ----------
