
---------- Begin Simulation Statistics ----------
final_tick                               1320573367953                       # Number of ticks from beginning of simulation (restored from checkpoints and never reset)
host_inst_rate                                 114307                       # Simulator instruction rate (inst/s)
host_mem_usage                                4515780                       # Number of bytes of host memory used
host_op_rate                                   231520                       # Simulator op (including micro ops) rate (op/s)
host_seconds                                   454.51                       # Real time elapsed on the host
host_tick_rate                               59891892                       # Simulator tick rate (ticks/s)
sim_freq                                 1000000000000                       # Frequency of simulated ticks
sim_insts                                    51953905                       # Number of instructions simulated
sim_ops                                     105228731                       # Number of ops (including micro ops) simulated
sim_seconds                                  0.027222                       # Number of seconds simulated
sim_ticks                                 27221660337                       # Number of ticks simulated
system.cpu0.committedInsts                          2                       # Number of instructions committed
system.cpu0.committedOps                            4                       # Number of ops (including micro ops) committed
system.cpu0.dtb.rdAccesses                          0                       # TLB accesses on read requests
system.cpu0.dtb.rdMisses                            0                       # TLB misses on read requests
system.cpu0.dtb.wrAccesses                          4                       # TLB accesses on write requests
system.cpu0.dtb.wrMisses                            0                       # TLB misses on write requests
system.cpu0.idle_fraction                           0                       # Percentage of idle cycles
system.cpu0.itb.rdAccesses                          0                       # TLB accesses on read requests
system.cpu0.itb.rdMisses                            0                       # TLB misses on read requests
system.cpu0.itb.wrAccesses                          4                       # TLB accesses on write requests
system.cpu0.itb.wrMisses                            0                       # TLB misses on write requests
system.cpu0.not_idle_fraction                       1                       # Percentage of non-idle cycles
system.cpu0.numCycles                               6                       # number of cpu cycles simulated
system.cpu0.numWorkItemsCompleted                   0                       # number of work items this cpu completed
system.cpu0.numWorkItemsStarted                     0                       # number of work items this cpu started
system.cpu0.num_busy_cycles                         6                       # Number of busy cycles
system.cpu0.num_conditional_control_insts            0                       # number of instructions that are conditional controls
system.cpu0.num_fp_alu_accesses                     4                       # Number of float alu accesses
system.cpu0.num_fp_insts                            4                       # number of float instructions
system.cpu0.num_fp_register_reads                   4                       # number of times the floating registers were read
system.cpu0.num_fp_register_writes                  0                       # number of times the floating registers were written
system.cpu0.num_func_calls                          0                       # number of times a function call or return occured
system.cpu0.num_idle_cycles                         0                       # Number of idle cycles
system.cpu0.num_int_alu_accesses                    4                       # Number of integer alu accesses
system.cpu0.num_int_insts                           4                       # number of integer instructions
system.cpu0.num_int_register_reads                 12                       # number of times the integer registers were read
system.cpu0.num_int_register_writes                 0                       # number of times the integer registers were written
system.cpu0.num_load_insts                          0                       # Number of load instructions
system.cpu0.num_mem_refs                            4                       # number of memory refs
system.cpu0.num_store_insts                         4                       # Number of store instructions
system.cpu0.num_vec_alu_accesses                    0                       # Number of vector alu accesses
system.cpu0.num_vec_insts                           0                       # number of vector instructions
system.cpu0.num_vec_register_reads                  0                       # number of times the vector registers were read
system.cpu0.num_vec_register_writes                 0                       # number of times the vector registers were written
system.cpu0.op_class::No_OpClass                    0      0.00%      0.00% # Class of executed instruction
system.cpu0.op_class::IntAlu                        0      0.00%      0.00% # Class of executed instruction
system.cpu0.op_class::IntMult                       0      0.00%      0.00% # Class of executed instruction
system.cpu0.op_class::IntDiv                        0      0.00%      0.00% # Class of executed instruction
system.cpu0.op_class::FloatAdd                      0      0.00%      0.00% # Class of executed instruction
system.cpu0.op_class::FloatCmp                      0      0.00%      0.00% # Class of executed instruction
system.cpu0.op_class::FloatCvt                      0      0.00%      0.00% # Class of executed instruction
system.cpu0.op_class::FloatMult                     0      0.00%      0.00% # Class of executed instruction
system.cpu0.op_class::FloatMultAcc                  0      0.00%      0.00% # Class of executed instruction
system.cpu0.op_class::FloatDiv                      0      0.00%      0.00% # Class of executed instruction
system.cpu0.op_class::FloatMisc                     0      0.00%      0.00% # Class of executed instruction
system.cpu0.op_class::FloatSqrt                     0      0.00%      0.00% # Class of executed instruction
system.cpu0.op_class::SimdAdd                       0      0.00%      0.00% # Class of executed instruction
system.cpu0.op_class::SimdAddAcc                    0      0.00%      0.00% # Class of executed instruction
system.cpu0.op_class::SimdAlu                       0      0.00%      0.00% # Class of executed instruction
system.cpu0.op_class::SimdCmp                       0      0.00%      0.00% # Class of executed instruction
system.cpu0.op_class::SimdCvt                       0      0.00%      0.00% # Class of executed instruction
system.cpu0.op_class::SimdMisc                      0      0.00%      0.00% # Class of executed instruction
system.cpu0.op_class::SimdMult                      0      0.00%      0.00% # Class of executed instruction
system.cpu0.op_class::SimdMultAcc                   0      0.00%      0.00% # Class of executed instruction
system.cpu0.op_class::SimdShift                     0      0.00%      0.00% # Class of executed instruction
system.cpu0.op_class::SimdShiftAcc                  0      0.00%      0.00% # Class of executed instruction
system.cpu0.op_class::SimdDiv                       0      0.00%      0.00% # Class of executed instruction
system.cpu0.op_class::SimdSqrt                      0      0.00%      0.00% # Class of executed instruction
system.cpu0.op_class::SimdFloatAdd                  0      0.00%      0.00% # Class of executed instruction
system.cpu0.op_class::SimdFloatAlu                  0      0.00%      0.00% # Class of executed instruction
system.cpu0.op_class::SimdFloatCmp                  0      0.00%      0.00% # Class of executed instruction
system.cpu0.op_class::SimdFloatCvt                  0      0.00%      0.00% # Class of executed instruction
system.cpu0.op_class::SimdFloatDiv                  0      0.00%      0.00% # Class of executed instruction
system.cpu0.op_class::SimdFloatMisc                 0      0.00%      0.00% # Class of executed instruction
system.cpu0.op_class::SimdFloatMult                 0      0.00%      0.00% # Class of executed instruction
system.cpu0.op_class::SimdFloatMultAcc              0      0.00%      0.00% # Class of executed instruction
system.cpu0.op_class::SimdFloatSqrt                 0      0.00%      0.00% # Class of executed instruction
system.cpu0.op_class::SimdReduceAdd                 0      0.00%      0.00% # Class of executed instruction
system.cpu0.op_class::SimdReduceAlu                 0      0.00%      0.00% # Class of executed instruction
system.cpu0.op_class::SimdReduceCmp                 0      0.00%      0.00% # Class of executed instruction
system.cpu0.op_class::SimdFloatReduceAdd            0      0.00%      0.00% # Class of executed instruction
system.cpu0.op_class::SimdFloatReduceCmp            0      0.00%      0.00% # Class of executed instruction
system.cpu0.op_class::SimdAes                       0      0.00%      0.00% # Class of executed instruction
system.cpu0.op_class::SimdAesMix                    0      0.00%      0.00% # Class of executed instruction
system.cpu0.op_class::SimdSha1Hash                  0      0.00%      0.00% # Class of executed instruction
system.cpu0.op_class::SimdSha1Hash2                 0      0.00%      0.00% # Class of executed instruction
system.cpu0.op_class::SimdSha256Hash                0      0.00%      0.00% # Class of executed instruction
system.cpu0.op_class::SimdSha256Hash2               0      0.00%      0.00% # Class of executed instruction
system.cpu0.op_class::SimdShaSigma2                 0      0.00%      0.00% # Class of executed instruction
system.cpu0.op_class::SimdShaSigma3                 0      0.00%      0.00% # Class of executed instruction
system.cpu0.op_class::SimdPredAlu                   0      0.00%      0.00% # Class of executed instruction
system.cpu0.op_class::MemRead                       0      0.00%      0.00% # Class of executed instruction
system.cpu0.op_class::MemWrite                      0      0.00%      0.00% # Class of executed instruction
system.cpu0.op_class::FloatMemRead                  0      0.00%      0.00% # Class of executed instruction
system.cpu0.op_class::FloatMemWrite                 4    100.00%    100.00% # Class of executed instruction
system.cpu0.op_class::IprAccess                     0      0.00%    100.00% # Class of executed instruction
system.cpu0.op_class::InstPrefetch                  0      0.00%    100.00% # Class of executed instruction
system.cpu0.op_class::total                         4                       # Class of executed instruction
system.cpu0.toL2Bus.snoop_filter.hit_multi_requests            0                       # Number of requests hitting in the snoop filter with multiple (>1) holders of the requested data.
system.cpu0.toL2Bus.snoop_filter.hit_multi_snoops            0                       # Number of snoops hitting in the snoop filter with multiple (>1) holders of the requested data.
system.cpu0.toL2Bus.snoop_filter.hit_single_requests       135757                       # Number of requests hitting in the snoop filter with a single holder of the requested data.
system.cpu0.toL2Bus.snoop_filter.hit_single_snoops            6                       # Number of snoops hitting in the snoop filter with a single holder of the requested data.
system.cpu0.toL2Bus.snoop_filter.tot_requests       272030                       # Total number of requests made to the snoop filter.
system.cpu0.toL2Bus.snoop_filter.tot_snoops            6                       # Total number of snoops made to the snoop filter.
system.cpu0.toL3Bus.snoop_filter.hit_multi_requests            0                       # Number of requests hitting in the snoop filter with multiple (>1) holders of the requested data.
system.cpu0.toL3Bus.snoop_filter.hit_multi_snoops            0                       # Number of snoops hitting in the snoop filter with multiple (>1) holders of the requested data.
system.cpu0.toL3Bus.snoop_filter.hit_single_requests       132173                       # Number of requests hitting in the snoop filter with a single holder of the requested data.
system.cpu0.toL3Bus.snoop_filter.hit_single_snoops            3                       # Number of snoops hitting in the snoop filter with a single holder of the requested data.
system.cpu0.toL3Bus.snoop_filter.tot_requests       268446                       # Total number of requests made to the snoop filter.
system.cpu0.toL3Bus.snoop_filter.tot_snoops            3                       # Total number of snoops made to the snoop filter.
system.cpu0.workload.numSyscalls                    0                       # Number of system calls
system.cpu1.Branches                                1                       # Number of branches fetched
system.cpu1.committedInsts                          1                       # Number of instructions committed
system.cpu1.committedOps                            5                       # Number of ops (including micro ops) committed
system.cpu1.dtb.rdAccesses                          0                       # TLB accesses on read requests
system.cpu1.dtb.rdMisses                            0                       # TLB misses on read requests
system.cpu1.dtb.wrAccesses                          1                       # TLB accesses on write requests
system.cpu1.dtb.wrMisses                            0                       # TLB misses on write requests
system.cpu1.idle_fraction                           0                       # Percentage of idle cycles
system.cpu1.itb.rdAccesses                          0                       # TLB accesses on read requests
system.cpu1.itb.rdMisses                            0                       # TLB misses on read requests
system.cpu1.itb.wrAccesses                          2                       # TLB accesses on write requests
system.cpu1.itb.wrMisses                            0                       # TLB misses on write requests
system.cpu1.not_idle_fraction                       1                       # Percentage of non-idle cycles
system.cpu1.numCycles                               6                       # number of cpu cycles simulated
system.cpu1.numWorkItemsCompleted                   0                       # number of work items this cpu completed
system.cpu1.numWorkItemsStarted                     0                       # number of work items this cpu started
system.cpu1.num_busy_cycles                         6                       # Number of busy cycles
system.cpu1.num_conditional_control_insts            0                       # number of instructions that are conditional controls
system.cpu1.num_fp_alu_accesses                     0                       # Number of float alu accesses
system.cpu1.num_fp_insts                            0                       # number of float instructions
system.cpu1.num_fp_register_reads                   0                       # number of times the floating registers were read
system.cpu1.num_fp_register_writes                  0                       # number of times the floating registers were written
system.cpu1.num_func_calls                          1                       # number of times a function call or return occured
system.cpu1.num_idle_cycles                         0                       # Number of idle cycles
system.cpu1.num_int_alu_accesses                    5                       # Number of integer alu accesses
system.cpu1.num_int_insts                           5                       # number of integer instructions
system.cpu1.num_int_register_reads                  9                       # number of times the integer registers were read
system.cpu1.num_int_register_writes                 3                       # number of times the integer registers were written
system.cpu1.num_load_insts                          0                       # Number of load instructions
system.cpu1.num_mem_refs                            1                       # number of memory refs
system.cpu1.num_store_insts                         1                       # Number of store instructions
system.cpu1.num_vec_alu_accesses                    0                       # Number of vector alu accesses
system.cpu1.num_vec_insts                           0                       # number of vector instructions
system.cpu1.num_vec_register_reads                  0                       # number of times the vector registers were read
system.cpu1.num_vec_register_writes                 0                       # number of times the vector registers were written
system.cpu1.op_class::No_OpClass                    0      0.00%      0.00% # Class of executed instruction
system.cpu1.op_class::IntAlu                        4     80.00%     80.00% # Class of executed instruction
system.cpu1.op_class::IntMult                       0      0.00%     80.00% # Class of executed instruction
system.cpu1.op_class::IntDiv                        0      0.00%     80.00% # Class of executed instruction
system.cpu1.op_class::FloatAdd                      0      0.00%     80.00% # Class of executed instruction
system.cpu1.op_class::FloatCmp                      0      0.00%     80.00% # Class of executed instruction
system.cpu1.op_class::FloatCvt                      0      0.00%     80.00% # Class of executed instruction
system.cpu1.op_class::FloatMult                     0      0.00%     80.00% # Class of executed instruction
system.cpu1.op_class::FloatMultAcc                  0      0.00%     80.00% # Class of executed instruction
system.cpu1.op_class::FloatDiv                      0      0.00%     80.00% # Class of executed instruction
system.cpu1.op_class::FloatMisc                     0      0.00%     80.00% # Class of executed instruction
system.cpu1.op_class::FloatSqrt                     0      0.00%     80.00% # Class of executed instruction
system.cpu1.op_class::SimdAdd                       0      0.00%     80.00% # Class of executed instruction
system.cpu1.op_class::SimdAddAcc                    0      0.00%     80.00% # Class of executed instruction
system.cpu1.op_class::SimdAlu                       0      0.00%     80.00% # Class of executed instruction
system.cpu1.op_class::SimdCmp                       0      0.00%     80.00% # Class of executed instruction
system.cpu1.op_class::SimdCvt                       0      0.00%     80.00% # Class of executed instruction
system.cpu1.op_class::SimdMisc                      0      0.00%     80.00% # Class of executed instruction
system.cpu1.op_class::SimdMult                      0      0.00%     80.00% # Class of executed instruction
system.cpu1.op_class::SimdMultAcc                   0      0.00%     80.00% # Class of executed instruction
system.cpu1.op_class::SimdShift                     0      0.00%     80.00% # Class of executed instruction
system.cpu1.op_class::SimdShiftAcc                  0      0.00%     80.00% # Class of executed instruction
system.cpu1.op_class::SimdDiv                       0      0.00%     80.00% # Class of executed instruction
system.cpu1.op_class::SimdSqrt                      0      0.00%     80.00% # Class of executed instruction
system.cpu1.op_class::SimdFloatAdd                  0      0.00%     80.00% # Class of executed instruction
system.cpu1.op_class::SimdFloatAlu                  0      0.00%     80.00% # Class of executed instruction
system.cpu1.op_class::SimdFloatCmp                  0      0.00%     80.00% # Class of executed instruction
system.cpu1.op_class::SimdFloatCvt                  0      0.00%     80.00% # Class of executed instruction
system.cpu1.op_class::SimdFloatDiv                  0      0.00%     80.00% # Class of executed instruction
system.cpu1.op_class::SimdFloatMisc                 0      0.00%     80.00% # Class of executed instruction
system.cpu1.op_class::SimdFloatMult                 0      0.00%     80.00% # Class of executed instruction
system.cpu1.op_class::SimdFloatMultAcc              0      0.00%     80.00% # Class of executed instruction
system.cpu1.op_class::SimdFloatSqrt                 0      0.00%     80.00% # Class of executed instruction
system.cpu1.op_class::SimdReduceAdd                 0      0.00%     80.00% # Class of executed instruction
system.cpu1.op_class::SimdReduceAlu                 0      0.00%     80.00% # Class of executed instruction
system.cpu1.op_class::SimdReduceCmp                 0      0.00%     80.00% # Class of executed instruction
system.cpu1.op_class::SimdFloatReduceAdd            0      0.00%     80.00% # Class of executed instruction
system.cpu1.op_class::SimdFloatReduceCmp            0      0.00%     80.00% # Class of executed instruction
system.cpu1.op_class::SimdAes                       0      0.00%     80.00% # Class of executed instruction
system.cpu1.op_class::SimdAesMix                    0      0.00%     80.00% # Class of executed instruction
system.cpu1.op_class::SimdSha1Hash                  0      0.00%     80.00% # Class of executed instruction
system.cpu1.op_class::SimdSha1Hash2                 0      0.00%     80.00% # Class of executed instruction
system.cpu1.op_class::SimdSha256Hash                0      0.00%     80.00% # Class of executed instruction
system.cpu1.op_class::SimdSha256Hash2               0      0.00%     80.00% # Class of executed instruction
system.cpu1.op_class::SimdShaSigma2                 0      0.00%     80.00% # Class of executed instruction
system.cpu1.op_class::SimdShaSigma3                 0      0.00%     80.00% # Class of executed instruction
system.cpu1.op_class::SimdPredAlu                   0      0.00%     80.00% # Class of executed instruction
system.cpu1.op_class::MemRead                       0      0.00%     80.00% # Class of executed instruction
system.cpu1.op_class::MemWrite                      1     20.00%    100.00% # Class of executed instruction
system.cpu1.op_class::FloatMemRead                  0      0.00%    100.00% # Class of executed instruction
system.cpu1.op_class::FloatMemWrite                 0      0.00%    100.00% # Class of executed instruction
system.cpu1.op_class::IprAccess                     0      0.00%    100.00% # Class of executed instruction
system.cpu1.op_class::InstPrefetch                  0      0.00%    100.00% # Class of executed instruction
system.cpu1.op_class::total                         5                       # Class of executed instruction
system.cpu1.toL2Bus.snoop_filter.hit_multi_requests           46                       # Number of requests hitting in the snoop filter with multiple (>1) holders of the requested data.
system.cpu1.toL2Bus.snoop_filter.hit_multi_snoops            0                       # Number of snoops hitting in the snoop filter with multiple (>1) holders of the requested data.
system.cpu1.toL2Bus.snoop_filter.hit_single_requests        56223                       # Number of requests hitting in the snoop filter with a single holder of the requested data.
system.cpu1.toL2Bus.snoop_filter.hit_single_snoops          501                       # Number of snoops hitting in the snoop filter with a single holder of the requested data.
system.cpu1.toL2Bus.snoop_filter.tot_requests       113243                       # Total number of requests made to the snoop filter.
system.cpu1.toL2Bus.snoop_filter.tot_snoops          501                       # Total number of snoops made to the snoop filter.
system.cpu1.toL3Bus.snoop_filter.hit_multi_requests            0                       # Number of requests hitting in the snoop filter with multiple (>1) holders of the requested data.
system.cpu1.toL3Bus.snoop_filter.hit_multi_snoops            0                       # Number of snoops hitting in the snoop filter with multiple (>1) holders of the requested data.
system.cpu1.toL3Bus.snoop_filter.hit_single_requests        25901                       # Number of requests hitting in the snoop filter with a single holder of the requested data.
system.cpu1.toL3Bus.snoop_filter.hit_single_snoops          242                       # Number of snoops hitting in the snoop filter with a single holder of the requested data.
system.cpu1.toL3Bus.snoop_filter.tot_requests        56219                       # Total number of requests made to the snoop filter.
system.cpu1.toL3Bus.snoop_filter.tot_snoops          242                       # Total number of snoops made to the snoop filter.
system.cpu1.workload.numSyscalls                16989                       # Number of system calls
system.membus.snoop_filter.hit_multi_requests            0                       # Number of requests hitting in the snoop filter with multiple (>1) holders of the requested data.
system.membus.snoop_filter.hit_multi_snoops            0                       # Number of snoops hitting in the snoop filter with multiple (>1) holders of the requested data.
system.membus.snoop_filter.hit_single_requests       104106                       # Number of requests hitting in the snoop filter with a single holder of the requested data.
system.membus.snoop_filter.hit_single_snoops            0                       # Number of snoops hitting in the snoop filter with a single holder of the requested data.
system.membus.snoop_filter.tot_requests        270681                       # Total number of requests made to the snoop filter.
system.membus.snoop_filter.tot_snoops               0                       # Total number of snoops made to the snoop filter.
system.switch_cpus0.Branches                    20865                       # Number of branches fetched
system.switch_cpus0.committedInsts             146052                       # Number of instructions committed
system.switch_cpus0.committedOps               292104                       # Number of ops (including micro ops) committed
system.switch_cpus0.dtb.rdAccesses                  0                       # TLB accesses on read requests
system.switch_cpus0.dtb.rdMisses                    0                       # TLB misses on read requests
system.switch_cpus0.dtb.wrAccesses             166914                       # TLB accesses on write requests
system.switch_cpus0.dtb.wrMisses                  327                       # TLB misses on write requests
system.switch_cpus0.idle_fraction            0.000000                       # Percentage of idle cycles
system.switch_cpus0.itb.rdAccesses                  0                       # TLB accesses on read requests
system.switch_cpus0.itb.rdMisses                    0                       # TLB misses on read requests
system.switch_cpus0.itb.wrAccesses             208645                       # TLB accesses on write requests
system.switch_cpus0.itb.wrMisses                    1                       # TLB misses on write requests
system.switch_cpus0.not_idle_fraction        1.000000                       # Percentage of non-idle cycles
system.switch_cpus0.numCycles                 5738553                       # number of cpu cycles simulated
system.switch_cpus0.numWorkItemsCompleted            0                       # number of work items this cpu completed
system.switch_cpus0.numWorkItemsStarted             0                       # number of work items this cpu started
system.switch_cpus0.num_busy_cycles      5738552.472558                       # Number of busy cycles
system.switch_cpus0.num_cc_register_reads       104325                       # number of times the CC registers were read
system.switch_cpus0.num_cc_register_writes        83460                       # number of times the CC registers were written
system.switch_cpus0.num_conditional_control_insts        20865                       # number of instructions that are conditional controls
system.switch_cpus0.num_fp_alu_accesses        166914                       # Number of float alu accesses
system.switch_cpus0.num_fp_insts               166914                       # number of float instructions
system.switch_cpus0.num_fp_register_reads       166914                       # number of times the floating registers were read
system.switch_cpus0.num_fp_register_writes            0                       # number of times the floating registers were written
system.switch_cpus0.num_func_calls                  0                       # number of times a function call or return occured
system.switch_cpus0.num_idle_cycles          0.527442                       # Number of idle cycles
system.switch_cpus0.num_int_alu_accesses       292104                       # Number of integer alu accesses
system.switch_cpus0.num_int_insts              292104                       # number of integer instructions
system.switch_cpus0.num_int_register_reads       667662                       # number of times the integer registers were read
system.switch_cpus0.num_int_register_writes       104325                       # number of times the integer registers were written
system.switch_cpus0.num_load_insts                  0                       # Number of load instructions
system.switch_cpus0.num_mem_refs               166914                       # number of memory refs
system.switch_cpus0.num_store_insts            166914                       # Number of store instructions
system.switch_cpus0.num_vec_alu_accesses            0                       # Number of vector alu accesses
system.switch_cpus0.num_vec_insts                   0                       # number of vector instructions
system.switch_cpus0.num_vec_register_reads            0                       # number of times the vector registers were read
system.switch_cpus0.num_vec_register_writes            0                       # number of times the vector registers were written
system.switch_cpus0.op_class::No_OpClass            0      0.00%      0.00% # Class of executed instruction
system.switch_cpus0.op_class::IntAlu           125190     42.86%     42.86% # Class of executed instruction
system.switch_cpus0.op_class::IntMult               0      0.00%     42.86% # Class of executed instruction
system.switch_cpus0.op_class::IntDiv                0      0.00%     42.86% # Class of executed instruction
system.switch_cpus0.op_class::FloatAdd              0      0.00%     42.86% # Class of executed instruction
system.switch_cpus0.op_class::FloatCmp              0      0.00%     42.86% # Class of executed instruction
system.switch_cpus0.op_class::FloatCvt              0      0.00%     42.86% # Class of executed instruction
system.switch_cpus0.op_class::FloatMult             0      0.00%     42.86% # Class of executed instruction
system.switch_cpus0.op_class::FloatMultAcc            0      0.00%     42.86% # Class of executed instruction
system.switch_cpus0.op_class::FloatDiv              0      0.00%     42.86% # Class of executed instruction
system.switch_cpus0.op_class::FloatMisc             0      0.00%     42.86% # Class of executed instruction
system.switch_cpus0.op_class::FloatSqrt             0      0.00%     42.86% # Class of executed instruction
system.switch_cpus0.op_class::SimdAdd               0      0.00%     42.86% # Class of executed instruction
system.switch_cpus0.op_class::SimdAddAcc            0      0.00%     42.86% # Class of executed instruction
system.switch_cpus0.op_class::SimdAlu               0      0.00%     42.86% # Class of executed instruction
system.switch_cpus0.op_class::SimdCmp               0      0.00%     42.86% # Class of executed instruction
system.switch_cpus0.op_class::SimdCvt               0      0.00%     42.86% # Class of executed instruction
system.switch_cpus0.op_class::SimdMisc              0      0.00%     42.86% # Class of executed instruction
system.switch_cpus0.op_class::SimdMult              0      0.00%     42.86% # Class of executed instruction
system.switch_cpus0.op_class::SimdMultAcc            0      0.00%     42.86% # Class of executed instruction
system.switch_cpus0.op_class::SimdShift             0      0.00%     42.86% # Class of executed instruction
system.switch_cpus0.op_class::SimdShiftAcc            0      0.00%     42.86% # Class of executed instruction
system.switch_cpus0.op_class::SimdDiv               0      0.00%     42.86% # Class of executed instruction
system.switch_cpus0.op_class::SimdSqrt              0      0.00%     42.86% # Class of executed instruction
system.switch_cpus0.op_class::SimdFloatAdd            0      0.00%     42.86% # Class of executed instruction
system.switch_cpus0.op_class::SimdFloatAlu            0      0.00%     42.86% # Class of executed instruction
system.switch_cpus0.op_class::SimdFloatCmp            0      0.00%     42.86% # Class of executed instruction
system.switch_cpus0.op_class::SimdFloatCvt            0      0.00%     42.86% # Class of executed instruction
system.switch_cpus0.op_class::SimdFloatDiv            0      0.00%     42.86% # Class of executed instruction
system.switch_cpus0.op_class::SimdFloatMisc            0      0.00%     42.86% # Class of executed instruction
system.switch_cpus0.op_class::SimdFloatMult            0      0.00%     42.86% # Class of executed instruction
system.switch_cpus0.op_class::SimdFloatMultAcc            0      0.00%     42.86% # Class of executed instruction
system.switch_cpus0.op_class::SimdFloatSqrt            0      0.00%     42.86% # Class of executed instruction
system.switch_cpus0.op_class::SimdReduceAdd            0      0.00%     42.86% # Class of executed instruction
system.switch_cpus0.op_class::SimdReduceAlu            0      0.00%     42.86% # Class of executed instruction
system.switch_cpus0.op_class::SimdReduceCmp            0      0.00%     42.86% # Class of executed instruction
system.switch_cpus0.op_class::SimdFloatReduceAdd            0      0.00%     42.86% # Class of executed instruction
system.switch_cpus0.op_class::SimdFloatReduceCmp            0      0.00%     42.86% # Class of executed instruction
system.switch_cpus0.op_class::SimdAes               0      0.00%     42.86% # Class of executed instruction
system.switch_cpus0.op_class::SimdAesMix            0      0.00%     42.86% # Class of executed instruction
system.switch_cpus0.op_class::SimdSha1Hash            0      0.00%     42.86% # Class of executed instruction
system.switch_cpus0.op_class::SimdSha1Hash2            0      0.00%     42.86% # Class of executed instruction
system.switch_cpus0.op_class::SimdSha256Hash            0      0.00%     42.86% # Class of executed instruction
system.switch_cpus0.op_class::SimdSha256Hash2            0      0.00%     42.86% # Class of executed instruction
system.switch_cpus0.op_class::SimdShaSigma2            0      0.00%     42.86% # Class of executed instruction
system.switch_cpus0.op_class::SimdShaSigma3            0      0.00%     42.86% # Class of executed instruction
system.switch_cpus0.op_class::SimdPredAlu            0      0.00%     42.86% # Class of executed instruction
system.switch_cpus0.op_class::MemRead               0      0.00%     42.86% # Class of executed instruction
system.switch_cpus0.op_class::MemWrite              0      0.00%     42.86% # Class of executed instruction
system.switch_cpus0.op_class::FloatMemRead            0      0.00%     42.86% # Class of executed instruction
system.switch_cpus0.op_class::FloatMemWrite       166914     57.14%    100.00% # Class of executed instruction
system.switch_cpus0.op_class::IprAccess             0      0.00%    100.00% # Class of executed instruction
system.switch_cpus0.op_class::InstPrefetch            0      0.00%    100.00% # Class of executed instruction
system.switch_cpus0.op_class::total            292104                       # Class of executed instruction
system.switch_cpus1.Branches                   224834                       # Number of branches fetched
system.switch_cpus1.committedInsts            1000001                       # Number of instructions committed
system.switch_cpus1.committedOps              2024684                       # Number of ops (including micro ops) committed
system.switch_cpus1.dtb.rdAccesses             291888                       # TLB accesses on read requests
system.switch_cpus1.dtb.rdMisses                   40                       # TLB misses on read requests
system.switch_cpus1.dtb.wrAccesses             213202                       # TLB accesses on write requests
system.switch_cpus1.dtb.wrMisses                    3                       # TLB misses on write requests
system.switch_cpus1.idle_fraction            0.000000                       # Percentage of idle cycles
system.switch_cpus1.itb.rdAccesses                  0                       # TLB accesses on read requests
system.switch_cpus1.itb.rdMisses                    0                       # TLB misses on read requests
system.switch_cpus1.itb.wrAccesses            1267697                       # TLB accesses on write requests
system.switch_cpus1.itb.wrMisses                   27                       # TLB misses on write requests
system.switch_cpus1.not_idle_fraction        1.000000                       # Percentage of non-idle cycles
system.switch_cpus1.numCycles                 5738553                       # number of cpu cycles simulated
system.switch_cpus1.numWorkItemsCompleted            0                       # number of work items this cpu completed
system.switch_cpus1.numWorkItemsStarted             0                       # number of work items this cpu started
system.switch_cpus1.num_busy_cycles      5738552.472558                       # Number of busy cycles
system.switch_cpus1.num_cc_register_reads       839766                       # number of times the CC registers were read
system.switch_cpus1.num_cc_register_writes       449805                       # number of times the CC registers were written
system.switch_cpus1.num_conditional_control_insts       102459                       # number of instructions that are conditional controls
system.switch_cpus1.num_fp_alu_accesses         16406                       # Number of float alu accesses
system.switch_cpus1.num_fp_insts                16406                       # number of float instructions
system.switch_cpus1.num_fp_register_reads        27540                       # number of times the floating registers were read
system.switch_cpus1.num_fp_register_writes        14430                       # number of times the floating registers were written
system.switch_cpus1.num_func_calls             106054                       # number of times a function call or return occured
system.switch_cpus1.num_idle_cycles          0.527442                       # Number of idle cycles
system.switch_cpus1.num_int_alu_accesses      2003876                       # Number of integer alu accesses
system.switch_cpus1.num_int_insts             2003876                       # number of integer instructions
system.switch_cpus1.num_int_register_reads      4247890                       # number of times the integer registers were read
system.switch_cpus1.num_int_register_writes      1572123                       # number of times the integer registers were written
system.switch_cpus1.num_load_insts             291886                       # Number of load instructions
system.switch_cpus1.num_mem_refs               505086                       # number of memory refs
system.switch_cpus1.num_store_insts            213200                       # Number of store instructions
system.switch_cpus1.num_vec_alu_accesses            0                       # Number of vector alu accesses
system.switch_cpus1.num_vec_insts                   0                       # number of vector instructions
system.switch_cpus1.num_vec_register_reads            0                       # number of times the vector registers were read
system.switch_cpus1.num_vec_register_writes            0                       # number of times the vector registers were written
system.switch_cpus1.op_class::No_OpClass         6797      0.34%      0.34% # Class of executed instruction
system.switch_cpus1.op_class::IntAlu          1497763     73.98%     74.31% # Class of executed instruction
system.switch_cpus1.op_class::IntMult             941      0.05%     74.36% # Class of executed instruction
system.switch_cpus1.op_class::IntDiv             2289      0.11%     74.47% # Class of executed instruction
system.switch_cpus1.op_class::FloatAdd            654      0.03%     74.50% # Class of executed instruction
system.switch_cpus1.op_class::FloatCmp              0      0.00%     74.50% # Class of executed instruction
system.switch_cpus1.op_class::FloatCvt              0      0.00%     74.50% # Class of executed instruction
system.switch_cpus1.op_class::FloatMult             0      0.00%     74.50% # Class of executed instruction
system.switch_cpus1.op_class::FloatMultAcc            0      0.00%     74.50% # Class of executed instruction
system.switch_cpus1.op_class::FloatDiv              0      0.00%     74.50% # Class of executed instruction
system.switch_cpus1.op_class::FloatMisc             0      0.00%     74.50% # Class of executed instruction
system.switch_cpus1.op_class::FloatSqrt             0      0.00%     74.50% # Class of executed instruction
system.switch_cpus1.op_class::SimdAdd               0      0.00%     74.50% # Class of executed instruction
system.switch_cpus1.op_class::SimdAddAcc            0      0.00%     74.50% # Class of executed instruction
system.switch_cpus1.op_class::SimdAlu            2624      0.13%     74.63% # Class of executed instruction
system.switch_cpus1.op_class::SimdCmp               0      0.00%     74.63% # Class of executed instruction
system.switch_cpus1.op_class::SimdCvt            2630      0.13%     74.76% # Class of executed instruction
system.switch_cpus1.op_class::SimdMisc           5900      0.29%     75.05% # Class of executed instruction
system.switch_cpus1.op_class::SimdMult              0      0.00%     75.05% # Class of executed instruction
system.switch_cpus1.op_class::SimdMultAcc            0      0.00%     75.05% # Class of executed instruction
system.switch_cpus1.op_class::SimdShift             0      0.00%     75.05% # Class of executed instruction
system.switch_cpus1.op_class::SimdShiftAcc            0      0.00%     75.05% # Class of executed instruction
system.switch_cpus1.op_class::SimdDiv               0      0.00%     75.05% # Class of executed instruction
system.switch_cpus1.op_class::SimdSqrt              0      0.00%     75.05% # Class of executed instruction
system.switch_cpus1.op_class::SimdFloatAdd            0      0.00%     75.05% # Class of executed instruction
system.switch_cpus1.op_class::SimdFloatAlu            0      0.00%     75.05% # Class of executed instruction
system.switch_cpus1.op_class::SimdFloatCmp            0      0.00%     75.05% # Class of executed instruction
system.switch_cpus1.op_class::SimdFloatCvt            0      0.00%     75.05% # Class of executed instruction
system.switch_cpus1.op_class::SimdFloatDiv            0      0.00%     75.05% # Class of executed instruction
system.switch_cpus1.op_class::SimdFloatMisc            0      0.00%     75.05% # Class of executed instruction
system.switch_cpus1.op_class::SimdFloatMult            0      0.00%     75.05% # Class of executed instruction
system.switch_cpus1.op_class::SimdFloatMultAcc            0      0.00%     75.05% # Class of executed instruction
system.switch_cpus1.op_class::SimdFloatSqrt            0      0.00%     75.05% # Class of executed instruction
system.switch_cpus1.op_class::SimdReduceAdd            0      0.00%     75.05% # Class of executed instruction
system.switch_cpus1.op_class::SimdReduceAlu            0      0.00%     75.05% # Class of executed instruction
system.switch_cpus1.op_class::SimdReduceCmp            0      0.00%     75.05% # Class of executed instruction
system.switch_cpus1.op_class::SimdFloatReduceAdd            0      0.00%     75.05% # Class of executed instruction
system.switch_cpus1.op_class::SimdFloatReduceCmp            0      0.00%     75.05% # Class of executed instruction
system.switch_cpus1.op_class::SimdAes               0      0.00%     75.05% # Class of executed instruction
system.switch_cpus1.op_class::SimdAesMix            0      0.00%     75.05% # Class of executed instruction
system.switch_cpus1.op_class::SimdSha1Hash            0      0.00%     75.05% # Class of executed instruction
system.switch_cpus1.op_class::SimdSha1Hash2            0      0.00%     75.05% # Class of executed instruction
system.switch_cpus1.op_class::SimdSha256Hash            0      0.00%     75.05% # Class of executed instruction
system.switch_cpus1.op_class::SimdSha256Hash2            0      0.00%     75.05% # Class of executed instruction
system.switch_cpus1.op_class::SimdShaSigma2            0      0.00%     75.05% # Class of executed instruction
system.switch_cpus1.op_class::SimdShaSigma3            0      0.00%     75.05% # Class of executed instruction
system.switch_cpus1.op_class::SimdPredAlu            0      0.00%     75.05% # Class of executed instruction
system.switch_cpus1.op_class::MemRead          289904     14.32%     89.37% # Class of executed instruction
system.switch_cpus1.op_class::MemWrite         212546     10.50%     99.87% # Class of executed instruction
system.switch_cpus1.op_class::FloatMemRead         1982      0.10%     99.97% # Class of executed instruction
system.switch_cpus1.op_class::FloatMemWrite          654      0.03%    100.00% # Class of executed instruction
system.switch_cpus1.op_class::IprAccess             0      0.00%    100.00% # Class of executed instruction
system.switch_cpus1.op_class::InstPrefetch            0      0.00%    100.00% # Class of executed instruction
system.switch_cpus1.op_class::total           2024684                       # Class of executed instruction
system.switch_cpus_10.branchPred.BTBCorrect            0                       # Number of correct BTB predictions (this stat may not work properly.
system.switch_cpus_10.branchPred.BTBHitPct     0.000000                       # BTB Hit Percentage
system.switch_cpus_10.branchPred.BTBHits            0                       # Number of BTB hits
system.switch_cpus_10.branchPred.BTBLookups       115397                       # Number of BTB lookups
system.switch_cpus_10.branchPred.RASInCorrect            0                       # Number of incorrect RAS predictions.
system.switch_cpus_10.branchPred.condIncorrect           17                       # Number of conditional branches incorrect
system.switch_cpus_10.branchPred.condPredicted       115410                       # Number of conditional branches predicted
system.switch_cpus_10.branchPred.indirectHits       115393                       # Number of indirect target hits.
system.switch_cpus_10.branchPred.indirectLookups       115397                       # Number of indirect predictor lookups.
system.switch_cpus_10.branchPred.indirectMisses            4                       # Number of indirect misses.
system.switch_cpus_10.branchPred.lookups       115423                       # Number of BP lookups
system.switch_cpus_10.branchPred.usedRAS           13                       # Number of times the RAS was used to get a target.
system.switch_cpus_10.branchPredindirectMispredicted            4                       # Number of mispredicted indirect branches.
system.switch_cpus_10.cc_regfile_reads         577035                       # number of cc regfile reads
system.switch_cpus_10.cc_regfile_writes        461633                       # number of cc regfile writes
system.switch_cpus_10.commit.amos                   0                       # Number of atomic instructions committed
system.switch_cpus_10.commit.branchMispredicts           17                       # The number of times a branch was mispredicted
system.switch_cpus_10.commit.branches          115407                       # Number of branches committed
system.switch_cpus_10.commit.bw_lim_events            0                       # number cycles where commit BW limit reached
system.switch_cpus_10.commit.commitSquashedInsts           99                       # The number of squashed insts skipped by commit
system.switch_cpus_10.commit.committedInsts       807849                       # Number of instructions committed
system.switch_cpus_10.commit.committedOps      1615699                       # Number of ops (including micro ops) committed
system.switch_cpus_10.commit.committed_per_cycle::samples     59541185                       # Number of insts commited each cycle
system.switch_cpus_10.commit.committed_per_cycle::mean     0.027136                       # Number of insts commited each cycle
system.switch_cpus_10.commit.committed_per_cycle::stdev     0.212460                       # Number of insts commited each cycle
system.switch_cpus_10.commit.committed_per_cycle::underflows            0      0.00%      0.00% # Number of insts commited each cycle
system.switch_cpus_10.commit.committed_per_cycle::0     58367907     98.03%     98.03% # Number of insts commited each cycle
system.switch_cpus_10.commit.committed_per_cycle::1       846301      1.42%     99.45% # Number of insts commited each cycle
system.switch_cpus_10.commit.committed_per_cycle::2       211562      0.36%     99.81% # Number of insts commited each cycle
system.switch_cpus_10.commit.committed_per_cycle::3       115390      0.19%    100.00% # Number of insts commited each cycle
system.switch_cpus_10.commit.committed_per_cycle::4           21      0.00%    100.00% # Number of insts commited each cycle
system.switch_cpus_10.commit.committed_per_cycle::5            4      0.00%    100.00% # Number of insts commited each cycle
system.switch_cpus_10.commit.committed_per_cycle::6            0      0.00%    100.00% # Number of insts commited each cycle
system.switch_cpus_10.commit.committed_per_cycle::7            0      0.00%    100.00% # Number of insts commited each cycle
system.switch_cpus_10.commit.committed_per_cycle::8            0      0.00%    100.00% # Number of insts commited each cycle
system.switch_cpus_10.commit.committed_per_cycle::overflows            0      0.00%    100.00% # Number of insts commited each cycle
system.switch_cpus_10.commit.committed_per_cycle::min_value            0                       # Number of insts commited each cycle
system.switch_cpus_10.commit.committed_per_cycle::max_value            5                       # Number of insts commited each cycle
system.switch_cpus_10.commit.committed_per_cycle::total     59541185                       # Number of insts commited each cycle
system.switch_cpus_10.commit.fp_insts          923257                       # Number of committed floating point instructions.
system.switch_cpus_10.commit.function_calls            0                       # Number of function calls committed.
system.switch_cpus_10.commit.int_insts        1615699                       # Number of committed integer instructions.
system.switch_cpus_10.commit.loads                  0                       # Number of loads committed
system.switch_cpus_10.commit.membars                0                       # Number of memory barriers committed
system.switch_cpus_10.commit.op_class_0::No_OpClass            0      0.00%      0.00% # Class of committed instruction
system.switch_cpus_10.commit.op_class_0::IntAlu       692442     42.86%     42.86% # Class of committed instruction
system.switch_cpus_10.commit.op_class_0::IntMult            0      0.00%     42.86% # Class of committed instruction
system.switch_cpus_10.commit.op_class_0::IntDiv            0      0.00%     42.86% # Class of committed instruction
system.switch_cpus_10.commit.op_class_0::FloatAdd            0      0.00%     42.86% # Class of committed instruction
system.switch_cpus_10.commit.op_class_0::FloatCmp            0      0.00%     42.86% # Class of committed instruction
system.switch_cpus_10.commit.op_class_0::FloatCvt            0      0.00%     42.86% # Class of committed instruction
system.switch_cpus_10.commit.op_class_0::FloatMult            0      0.00%     42.86% # Class of committed instruction
system.switch_cpus_10.commit.op_class_0::FloatMultAcc            0      0.00%     42.86% # Class of committed instruction
system.switch_cpus_10.commit.op_class_0::FloatDiv            0      0.00%     42.86% # Class of committed instruction
system.switch_cpus_10.commit.op_class_0::FloatMisc            0      0.00%     42.86% # Class of committed instruction
system.switch_cpus_10.commit.op_class_0::FloatSqrt            0      0.00%     42.86% # Class of committed instruction
system.switch_cpus_10.commit.op_class_0::SimdAdd            0      0.00%     42.86% # Class of committed instruction
system.switch_cpus_10.commit.op_class_0::SimdAddAcc            0      0.00%     42.86% # Class of committed instruction
system.switch_cpus_10.commit.op_class_0::SimdAlu            0      0.00%     42.86% # Class of committed instruction
system.switch_cpus_10.commit.op_class_0::SimdCmp            0      0.00%     42.86% # Class of committed instruction
system.switch_cpus_10.commit.op_class_0::SimdCvt            0      0.00%     42.86% # Class of committed instruction
system.switch_cpus_10.commit.op_class_0::SimdMisc            0      0.00%     42.86% # Class of committed instruction
system.switch_cpus_10.commit.op_class_0::SimdMult            0      0.00%     42.86% # Class of committed instruction
system.switch_cpus_10.commit.op_class_0::SimdMultAcc            0      0.00%     42.86% # Class of committed instruction
system.switch_cpus_10.commit.op_class_0::SimdShift            0      0.00%     42.86% # Class of committed instruction
system.switch_cpus_10.commit.op_class_0::SimdShiftAcc            0      0.00%     42.86% # Class of committed instruction
system.switch_cpus_10.commit.op_class_0::SimdDiv            0      0.00%     42.86% # Class of committed instruction
system.switch_cpus_10.commit.op_class_0::SimdSqrt            0      0.00%     42.86% # Class of committed instruction
system.switch_cpus_10.commit.op_class_0::SimdFloatAdd            0      0.00%     42.86% # Class of committed instruction
system.switch_cpus_10.commit.op_class_0::SimdFloatAlu            0      0.00%     42.86% # Class of committed instruction
system.switch_cpus_10.commit.op_class_0::SimdFloatCmp            0      0.00%     42.86% # Class of committed instruction
system.switch_cpus_10.commit.op_class_0::SimdFloatCvt            0      0.00%     42.86% # Class of committed instruction
system.switch_cpus_10.commit.op_class_0::SimdFloatDiv            0      0.00%     42.86% # Class of committed instruction
system.switch_cpus_10.commit.op_class_0::SimdFloatMisc            0      0.00%     42.86% # Class of committed instruction
system.switch_cpus_10.commit.op_class_0::SimdFloatMult            0      0.00%     42.86% # Class of committed instruction
system.switch_cpus_10.commit.op_class_0::SimdFloatMultAcc            0      0.00%     42.86% # Class of committed instruction
system.switch_cpus_10.commit.op_class_0::SimdFloatSqrt            0      0.00%     42.86% # Class of committed instruction
system.switch_cpus_10.commit.op_class_0::SimdReduceAdd            0      0.00%     42.86% # Class of committed instruction
system.switch_cpus_10.commit.op_class_0::SimdReduceAlu            0      0.00%     42.86% # Class of committed instruction
system.switch_cpus_10.commit.op_class_0::SimdReduceCmp            0      0.00%     42.86% # Class of committed instruction
system.switch_cpus_10.commit.op_class_0::SimdFloatReduceAdd            0      0.00%     42.86% # Class of committed instruction
system.switch_cpus_10.commit.op_class_0::SimdFloatReduceCmp            0      0.00%     42.86% # Class of committed instruction
system.switch_cpus_10.commit.op_class_0::SimdAes            0      0.00%     42.86% # Class of committed instruction
system.switch_cpus_10.commit.op_class_0::SimdAesMix            0      0.00%     42.86% # Class of committed instruction
system.switch_cpus_10.commit.op_class_0::SimdSha1Hash            0      0.00%     42.86% # Class of committed instruction
system.switch_cpus_10.commit.op_class_0::SimdSha1Hash2            0      0.00%     42.86% # Class of committed instruction
system.switch_cpus_10.commit.op_class_0::SimdSha256Hash            0      0.00%     42.86% # Class of committed instruction
system.switch_cpus_10.commit.op_class_0::SimdSha256Hash2            0      0.00%     42.86% # Class of committed instruction
system.switch_cpus_10.commit.op_class_0::SimdShaSigma2            0      0.00%     42.86% # Class of committed instruction
system.switch_cpus_10.commit.op_class_0::SimdShaSigma3            0      0.00%     42.86% # Class of committed instruction
system.switch_cpus_10.commit.op_class_0::SimdPredAlu            0      0.00%     42.86% # Class of committed instruction
system.switch_cpus_10.commit.op_class_0::MemRead            0      0.00%     42.86% # Class of committed instruction
system.switch_cpus_10.commit.op_class_0::MemWrite            0      0.00%     42.86% # Class of committed instruction
system.switch_cpus_10.commit.op_class_0::FloatMemRead            0      0.00%     42.86% # Class of committed instruction
system.switch_cpus_10.commit.op_class_0::FloatMemWrite       923257     57.14%    100.00% # Class of committed instruction
system.switch_cpus_10.commit.op_class_0::IprAccess            0      0.00%    100.00% # Class of committed instruction
system.switch_cpus_10.commit.op_class_0::InstPrefetch            0      0.00%    100.00% # Class of committed instruction
system.switch_cpus_10.commit.op_class_0::total      1615699                       # Class of committed instruction
system.switch_cpus_10.commit.refs              923257                       # Number of memory references committed
system.switch_cpus_10.commit.swp_count              0                       # Number of s/w prefetches committed
system.switch_cpus_10.commit.vec_insts              0                       # Number of committed Vector instructions.
system.switch_cpus_10.committedInsts           807849                       # Number of Instructions Simulated
system.switch_cpus_10.committedOps            1615699                       # Number of Ops (including micro ops) Simulated
system.switch_cpus_10.cpi                   73.703380                       # CPI: Cycles Per Instruction
system.switch_cpus_10.cpi_total             73.703380                       # CPI: Total CPI of All Threads
system.switch_cpus_10.decode.BlockedCycles     59271736                       # Number of cycles decode is blocked
system.switch_cpus_10.decode.DecodedInsts      1615997                       # Number of instructions handled by decode
system.switch_cpus_10.decode.IdleCycles         67444                       # Number of cycles decode is idle
system.switch_cpus_10.decode.RunCycles             71                       # Number of cycles decode is running
system.switch_cpus_10.decode.SquashCycles           17                       # Number of cycles decode is squashing
system.switch_cpus_10.decode.UnblockCycles       201932                       # Number of cycles decode is unblocking
system.switch_cpus_10.dtb.rdAccesses               13                       # TLB accesses on read requests
system.switch_cpus_10.dtb.rdMisses                  1                       # TLB misses on read requests
system.switch_cpus_10.dtb.wrAccesses           923257                       # TLB accesses on write requests
system.switch_cpus_10.dtb.wrMisses               1804                       # TLB misses on write requests
system.switch_cpus_10.fetch.Branches           115423                       # Number of branches that fetch encountered
system.switch_cpus_10.fetch.CacheLines             48                       # Number of cache lines fetched
system.switch_cpus_10.fetch.Cycles           59540375                       # Number of cycles fetch has run and was not squashing or blocked
system.switch_cpus_10.fetch.IcacheSquashes            5                       # Number of outstanding Icache misses that were squashed
system.switch_cpus_10.fetch.Insts              808186                       # Number of instructions fetch has processed
system.switch_cpus_10.fetch.SquashCycles           34                       # Number of cycles fetch has spent squashing
system.switch_cpus_10.fetch.branchRate       0.001939                       # Number of branch fetches per cycle
system.switch_cpus_10.fetch.icacheStallCycles          810                       # Number of cycles fetch is stalled on an Icache miss
system.switch_cpus_10.fetch.predictedBranches       115406                       # Number of branches that fetch has predicted taken
system.switch_cpus_10.fetch.rate             0.013574                       # Number of inst fetches per cycle
system.switch_cpus_10.fetch.rateDist::samples     59541202                       # Number of instructions fetched each cycle (Total)
system.switch_cpus_10.fetch.rateDist::mean     0.027151                       # Number of instructions fetched each cycle (Total)
system.switch_cpus_10.fetch.rateDist::stdev     0.421547                       # Number of instructions fetched each cycle (Total)
system.switch_cpus_10.fetch.rateDist::underflows            0      0.00%      0.00% # Number of instructions fetched each cycle (Total)
system.switch_cpus_10.fetch.rateDist::0      59252565     99.52%     99.52% # Number of instructions fetched each cycle (Total)
system.switch_cpus_10.fetch.rateDist::1             0      0.00%     99.52% # Number of instructions fetched each cycle (Total)
system.switch_cpus_10.fetch.rateDist::2         57695      0.10%     99.61% # Number of instructions fetched each cycle (Total)
system.switch_cpus_10.fetch.rateDist::3            13      0.00%     99.61% # Number of instructions fetched each cycle (Total)
system.switch_cpus_10.fetch.rateDist::4         57695      0.10%     99.71% # Number of instructions fetched each cycle (Total)
system.switch_cpus_10.fetch.rateDist::5            12      0.00%     99.71% # Number of instructions fetched each cycle (Total)
system.switch_cpus_10.fetch.rateDist::6         57716      0.10%     99.81% # Number of instructions fetched each cycle (Total)
system.switch_cpus_10.fetch.rateDist::7             0      0.00%     99.81% # Number of instructions fetched each cycle (Total)
system.switch_cpus_10.fetch.rateDist::8        115506      0.19%    100.00% # Number of instructions fetched each cycle (Total)
system.switch_cpus_10.fetch.rateDist::overflows            0      0.00%    100.00% # Number of instructions fetched each cycle (Total)
system.switch_cpus_10.fetch.rateDist::min_value            0                       # Number of instructions fetched each cycle (Total)
system.switch_cpus_10.fetch.rateDist::max_value            8                       # Number of instructions fetched each cycle (Total)
system.switch_cpus_10.fetch.rateDist::total     59541202                       # Number of instructions fetched each cycle (Total)
system.switch_cpus_10.fp_regfile_reads         923257                       # number of floating regfile reads
system.switch_cpus_10.fp_regfile_writes            56                       # number of floating regfile writes
system.switch_cpus_10.iew.branchMispredicts           17                       # Number of branch mispredicts detected at execute
system.switch_cpus_10.iew.exec_branches        115407                       # Number of branches executed
system.switch_cpus_10.iew.exec_nop                  0                       # number of nop insts executed
system.switch_cpus_10.iew.exec_rate          0.027136                       # Inst execution rate
system.switch_cpus_10.iew.exec_refs            923270                       # number of memory reference insts executed
system.switch_cpus_10.iew.exec_stores          923257                       # Number of stores executed
system.switch_cpus_10.iew.exec_swp                  0                       # number of swp insts executed
system.switch_cpus_10.iew.iewBlockCycles            0                       # Number of cycles IEW is blocking
system.switch_cpus_10.iew.iewDispLoadInsts           37                       # Number of dispatched load instructions
system.switch_cpus_10.iew.iewDispNonSpecInsts            0                       # Number of dispatched non-speculative instructions
system.switch_cpus_10.iew.iewDispSquashedInsts            0                       # Number of squashed instructions skipped by dispatch
system.switch_cpus_10.iew.iewDispStoreInsts       923269                       # Number of dispatched store instructions
system.switch_cpus_10.iew.iewDispatchedInsts      1615798                       # Number of instructions dispatched to IQ
system.switch_cpus_10.iew.iewExecLoadInsts           13                       # Number of load instructions executed
system.switch_cpus_10.iew.iewExecSquashedInsts            0                       # Number of squashed instructions skipped in execute
system.switch_cpus_10.iew.iewExecutedInsts      1615725                       # Number of executed instructions
system.switch_cpus_10.iew.iewIQFullEvents            0                       # Number of times the IQ has become full, causing a stall
system.switch_cpus_10.iew.iewIdleCycles             0                       # Number of cycles IEW is idle
system.switch_cpus_10.iew.iewLSQFullEvents         3973                       # Number of times the LSQ has become full, causing a stall
system.switch_cpus_10.iew.iewSquashCycles           17                       # Number of cycles IEW is squashing
system.switch_cpus_10.iew.iewUnblockCycles         3973                       # Number of cycles IEW is unblocking
system.switch_cpus_10.iew.lsq.thread0.blockedLoads            0                       # Number of blocked loads due to partial load-store forwarding
system.switch_cpus_10.iew.lsq.thread0.cacheBlocked            0                       # Number of times an access to memory failed due to the cache being blocked
system.switch_cpus_10.iew.lsq.thread0.forwLoads            0                       # Number of loads that had data forwarded from stores
system.switch_cpus_10.iew.lsq.thread0.ignoredResponses            0                       # Number of memory responses ignored because the instruction is squashed
system.switch_cpus_10.iew.lsq.thread0.invAddrLoads            0                       # Number of loads ignored due to an invalid address
system.switch_cpus_10.iew.lsq.thread0.invAddrSwpfs            0                       # Number of software prefetches ignored due to an invalid address
system.switch_cpus_10.iew.lsq.thread0.memOrderViolation            0                       # Number of memory ordering violations
system.switch_cpus_10.iew.lsq.thread0.rescheduledLoads            0                       # Number of loads that were rescheduled
system.switch_cpus_10.iew.lsq.thread0.squashedLoads           37                       # Number of loads squashed
system.switch_cpus_10.iew.lsq.thread0.squashedStores           12                       # Number of stores squashed
system.switch_cpus_10.iew.memOrderViolationEvents            0                       # Number of memory order violations
system.switch_cpus_10.iew.predictedNotTakenIncorrect           17                       # Number of branches that were predicted not taken incorrectly
system.switch_cpus_10.iew.predictedTakenIncorrect            0                       # Number of branches that were predicted taken incorrectly
system.switch_cpus_10.iew.wb_consumers         692442                       # num instructions consuming a value
system.switch_cpus_10.iew.wb_count            1615712                       # cumulative count of insts written-back
system.switch_cpus_10.iew.wb_fanout          0.805561                       # average fanout of values written-back
system.switch_cpus_10.iew.wb_producers         557804                       # num instructions producing a value
system.switch_cpus_10.iew.wb_rate            0.027136                       # insts written-back per cycle
system.switch_cpus_10.iew.wb_sent             1615712                       # cumulative count of insts sent to commit
system.switch_cpus_10.int_regfile_reads       2538995                       # number of integer regfile reads
system.switch_cpus_10.int_regfile_writes       577086                       # number of integer regfile writes
system.switch_cpus_10.ipc                    0.013568                       # IPC: Instructions Per Cycle
system.switch_cpus_10.ipc_total              0.013568                       # IPC: Total IPC of All Threads
system.switch_cpus_10.iq.FU_type_0::No_OpClass            0      0.00%      0.00% # Type of FU issued
system.switch_cpus_10.iq.FU_type_0::IntAlu       692455     42.86%     42.86% # Type of FU issued
system.switch_cpus_10.iq.FU_type_0::IntMult            0      0.00%     42.86% # Type of FU issued
system.switch_cpus_10.iq.FU_type_0::IntDiv            0      0.00%     42.86% # Type of FU issued
system.switch_cpus_10.iq.FU_type_0::FloatAdd            0      0.00%     42.86% # Type of FU issued
system.switch_cpus_10.iq.FU_type_0::FloatCmp            0      0.00%     42.86% # Type of FU issued
system.switch_cpus_10.iq.FU_type_0::FloatCvt            0      0.00%     42.86% # Type of FU issued
system.switch_cpus_10.iq.FU_type_0::FloatMult            0      0.00%     42.86% # Type of FU issued
system.switch_cpus_10.iq.FU_type_0::FloatMultAcc            0      0.00%     42.86% # Type of FU issued
system.switch_cpus_10.iq.FU_type_0::FloatDiv            0      0.00%     42.86% # Type of FU issued
system.switch_cpus_10.iq.FU_type_0::FloatMisc            0      0.00%     42.86% # Type of FU issued
system.switch_cpus_10.iq.FU_type_0::FloatSqrt            0      0.00%     42.86% # Type of FU issued
system.switch_cpus_10.iq.FU_type_0::SimdAdd            0      0.00%     42.86% # Type of FU issued
system.switch_cpus_10.iq.FU_type_0::SimdAddAcc            0      0.00%     42.86% # Type of FU issued
system.switch_cpus_10.iq.FU_type_0::SimdAlu            0      0.00%     42.86% # Type of FU issued
system.switch_cpus_10.iq.FU_type_0::SimdCmp            0      0.00%     42.86% # Type of FU issued
system.switch_cpus_10.iq.FU_type_0::SimdCvt            0      0.00%     42.86% # Type of FU issued
system.switch_cpus_10.iq.FU_type_0::SimdMisc            0      0.00%     42.86% # Type of FU issued
system.switch_cpus_10.iq.FU_type_0::SimdMult            0      0.00%     42.86% # Type of FU issued
system.switch_cpus_10.iq.FU_type_0::SimdMultAcc            0      0.00%     42.86% # Type of FU issued
system.switch_cpus_10.iq.FU_type_0::SimdShift            0      0.00%     42.86% # Type of FU issued
system.switch_cpus_10.iq.FU_type_0::SimdShiftAcc            0      0.00%     42.86% # Type of FU issued
system.switch_cpus_10.iq.FU_type_0::SimdDiv            0      0.00%     42.86% # Type of FU issued
system.switch_cpus_10.iq.FU_type_0::SimdSqrt            0      0.00%     42.86% # Type of FU issued
system.switch_cpus_10.iq.FU_type_0::SimdFloatAdd            0      0.00%     42.86% # Type of FU issued
system.switch_cpus_10.iq.FU_type_0::SimdFloatAlu            0      0.00%     42.86% # Type of FU issued
system.switch_cpus_10.iq.FU_type_0::SimdFloatCmp            0      0.00%     42.86% # Type of FU issued
system.switch_cpus_10.iq.FU_type_0::SimdFloatCvt            0      0.00%     42.86% # Type of FU issued
system.switch_cpus_10.iq.FU_type_0::SimdFloatDiv            0      0.00%     42.86% # Type of FU issued
system.switch_cpus_10.iq.FU_type_0::SimdFloatMisc            0      0.00%     42.86% # Type of FU issued
system.switch_cpus_10.iq.FU_type_0::SimdFloatMult            0      0.00%     42.86% # Type of FU issued
system.switch_cpus_10.iq.FU_type_0::SimdFloatMultAcc            0      0.00%     42.86% # Type of FU issued
system.switch_cpus_10.iq.FU_type_0::SimdFloatSqrt            0      0.00%     42.86% # Type of FU issued
system.switch_cpus_10.iq.FU_type_0::SimdReduceAdd            0      0.00%     42.86% # Type of FU issued
system.switch_cpus_10.iq.FU_type_0::SimdReduceAlu            0      0.00%     42.86% # Type of FU issued
system.switch_cpus_10.iq.FU_type_0::SimdReduceCmp            0      0.00%     42.86% # Type of FU issued
system.switch_cpus_10.iq.FU_type_0::SimdFloatReduceAdd            0      0.00%     42.86% # Type of FU issued
system.switch_cpus_10.iq.FU_type_0::SimdFloatReduceCmp            0      0.00%     42.86% # Type of FU issued
system.switch_cpus_10.iq.FU_type_0::SimdAes            0      0.00%     42.86% # Type of FU issued
system.switch_cpus_10.iq.FU_type_0::SimdAesMix            0      0.00%     42.86% # Type of FU issued
system.switch_cpus_10.iq.FU_type_0::SimdSha1Hash            0      0.00%     42.86% # Type of FU issued
system.switch_cpus_10.iq.FU_type_0::SimdSha1Hash2            0      0.00%     42.86% # Type of FU issued
system.switch_cpus_10.iq.FU_type_0::SimdSha256Hash            0      0.00%     42.86% # Type of FU issued
system.switch_cpus_10.iq.FU_type_0::SimdSha256Hash2            0      0.00%     42.86% # Type of FU issued
system.switch_cpus_10.iq.FU_type_0::SimdShaSigma2            0      0.00%     42.86% # Type of FU issued
system.switch_cpus_10.iq.FU_type_0::SimdShaSigma3            0      0.00%     42.86% # Type of FU issued
system.switch_cpus_10.iq.FU_type_0::SimdPredAlu            0      0.00%     42.86% # Type of FU issued
system.switch_cpus_10.iq.FU_type_0::MemRead           13      0.00%     42.86% # Type of FU issued
system.switch_cpus_10.iq.FU_type_0::MemWrite            0      0.00%     42.86% # Type of FU issued
system.switch_cpus_10.iq.FU_type_0::FloatMemRead            0      0.00%     42.86% # Type of FU issued
system.switch_cpus_10.iq.FU_type_0::FloatMemWrite       923257     57.14%    100.00% # Type of FU issued
system.switch_cpus_10.iq.FU_type_0::IprAccess            0      0.00%    100.00% # Type of FU issued
system.switch_cpus_10.iq.FU_type_0::InstPrefetch            0      0.00%    100.00% # Type of FU issued
system.switch_cpus_10.iq.FU_type_0::total      1615725                       # Type of FU issued
system.switch_cpus_10.iq.fp_alu_accesses       923261                       # Number of floating point alu accesses
system.switch_cpus_10.iq.fp_inst_queue_reads      1846518                       # Number of floating instruction queue reads
system.switch_cpus_10.iq.fp_inst_queue_wakeup_accesses       923257                       # Number of floating instruction queue wakeup accesses
system.switch_cpus_10.iq.fp_inst_queue_writes       923257                       # Number of floating instruction queue writes
system.switch_cpus_10.iq.fu_busy_cnt                4                       # FU busy when requested
system.switch_cpus_10.iq.fu_busy_rate        0.000002                       # FU busy rate (busy events/executed inst)
system.switch_cpus_10.iq.fu_full::No_OpClass            0      0.00%      0.00% # attempts to use FU when none available
system.switch_cpus_10.iq.fu_full::IntAlu            0      0.00%      0.00% # attempts to use FU when none available
system.switch_cpus_10.iq.fu_full::IntMult            0      0.00%      0.00% # attempts to use FU when none available
system.switch_cpus_10.iq.fu_full::IntDiv            0      0.00%      0.00% # attempts to use FU when none available
system.switch_cpus_10.iq.fu_full::FloatAdd            0      0.00%      0.00% # attempts to use FU when none available
system.switch_cpus_10.iq.fu_full::FloatCmp            0      0.00%      0.00% # attempts to use FU when none available
system.switch_cpus_10.iq.fu_full::FloatCvt            0      0.00%      0.00% # attempts to use FU when none available
system.switch_cpus_10.iq.fu_full::FloatMult            0      0.00%      0.00% # attempts to use FU when none available
system.switch_cpus_10.iq.fu_full::FloatMultAcc            0      0.00%      0.00% # attempts to use FU when none available
system.switch_cpus_10.iq.fu_full::FloatDiv            0      0.00%      0.00% # attempts to use FU when none available
system.switch_cpus_10.iq.fu_full::FloatMisc            0      0.00%      0.00% # attempts to use FU when none available
system.switch_cpus_10.iq.fu_full::FloatSqrt            0      0.00%      0.00% # attempts to use FU when none available
system.switch_cpus_10.iq.fu_full::SimdAdd            0      0.00%      0.00% # attempts to use FU when none available
system.switch_cpus_10.iq.fu_full::SimdAddAcc            0      0.00%      0.00% # attempts to use FU when none available
system.switch_cpus_10.iq.fu_full::SimdAlu            0      0.00%      0.00% # attempts to use FU when none available
system.switch_cpus_10.iq.fu_full::SimdCmp            0      0.00%      0.00% # attempts to use FU when none available
system.switch_cpus_10.iq.fu_full::SimdCvt            0      0.00%      0.00% # attempts to use FU when none available
system.switch_cpus_10.iq.fu_full::SimdMisc            0      0.00%      0.00% # attempts to use FU when none available
system.switch_cpus_10.iq.fu_full::SimdMult            0      0.00%      0.00% # attempts to use FU when none available
system.switch_cpus_10.iq.fu_full::SimdMultAcc            0      0.00%      0.00% # attempts to use FU when none available
system.switch_cpus_10.iq.fu_full::SimdShift            0      0.00%      0.00% # attempts to use FU when none available
system.switch_cpus_10.iq.fu_full::SimdShiftAcc            0      0.00%      0.00% # attempts to use FU when none available
system.switch_cpus_10.iq.fu_full::SimdDiv            0      0.00%      0.00% # attempts to use FU when none available
system.switch_cpus_10.iq.fu_full::SimdSqrt            0      0.00%      0.00% # attempts to use FU when none available
system.switch_cpus_10.iq.fu_full::SimdFloatAdd            0      0.00%      0.00% # attempts to use FU when none available
system.switch_cpus_10.iq.fu_full::SimdFloatAlu            0      0.00%      0.00% # attempts to use FU when none available
system.switch_cpus_10.iq.fu_full::SimdFloatCmp            0      0.00%      0.00% # attempts to use FU when none available
system.switch_cpus_10.iq.fu_full::SimdFloatCvt            0      0.00%      0.00% # attempts to use FU when none available
system.switch_cpus_10.iq.fu_full::SimdFloatDiv            0      0.00%      0.00% # attempts to use FU when none available
system.switch_cpus_10.iq.fu_full::SimdFloatMisc            0      0.00%      0.00% # attempts to use FU when none available
system.switch_cpus_10.iq.fu_full::SimdFloatMult            0      0.00%      0.00% # attempts to use FU when none available
system.switch_cpus_10.iq.fu_full::SimdFloatMultAcc            0      0.00%      0.00% # attempts to use FU when none available
system.switch_cpus_10.iq.fu_full::SimdFloatSqrt            0      0.00%      0.00% # attempts to use FU when none available
system.switch_cpus_10.iq.fu_full::SimdReduceAdd            0      0.00%      0.00% # attempts to use FU when none available
system.switch_cpus_10.iq.fu_full::SimdReduceAlu            0      0.00%      0.00% # attempts to use FU when none available
system.switch_cpus_10.iq.fu_full::SimdReduceCmp            0      0.00%      0.00% # attempts to use FU when none available
system.switch_cpus_10.iq.fu_full::SimdFloatReduceAdd            0      0.00%      0.00% # attempts to use FU when none available
system.switch_cpus_10.iq.fu_full::SimdFloatReduceCmp            0      0.00%      0.00% # attempts to use FU when none available
[...]
system.cpu1.l2cache.ReadSharedReq_mshr_miss_rate::.switch_cpus_11.data     0.520926                       # mshr miss rate for ReadSharedReq accesses
system.cpu1.l2cache.ReadSharedReq_mshr_miss_rate::total     0.530369                       # mshr miss rate for ReadSharedReq accesses
system.cpu1.l2cache.ReadSharedReq_avg_mshr_miss_latency::.switch_cpus1.data 121270.837190                       # average ReadSharedReq mshr miss latency
system.cpu1.l2cache.ReadSharedReq_avg_mshr_miss_latency::.switch_cpus_11.data 122059.209708                       # average ReadSharedReq mshr miss latency
system.cpu1.l2cache.ReadSharedReq_avg_mshr_miss_latency::total 122027.424730                       # average ReadSharedReq mshr miss latency
system.cpu1.l2cache.tags.pwrStateResidencyTicks::UNDEFINED 1320573367953                       # Cumulative time (in ticks) in various power states
system.cpu1.l2cache.tags.tagsinuse          76.496346                       # Cycle average of tags in use
system.cpu1.l2cache.tags.total_refs            113192                       # Total number of references to valid blocks.
system.cpu1.l2cache.tags.sampled_refs           30322                       # Sample count of references to valid blocks.
system.cpu1.l2cache.tags.avg_refs            3.732999                       # Average number of references to valid blocks.
system.cpu1.l2cache.tags.warmup_cycle    1293351708033                       # Cycle when the warmup percentage was hit.
system.cpu1.l2cache.tags.occ_blocks::.cpu1.inst     0.003753                       # Average occupied blocks per requestor
system.cpu1.l2cache.tags.occ_blocks::.cpu1.data     0.020614                       # Average occupied blocks per requestor
system.cpu1.l2cache.tags.occ_blocks::.switch_cpus1.inst     0.703339                       # Average occupied blocks per requestor
system.cpu1.l2cache.tags.occ_blocks::.switch_cpus1.data    11.379567                       # Average occupied blocks per requestor
system.cpu1.l2cache.tags.occ_blocks::.switch_cpus_11.inst     0.183437                       # Average occupied blocks per requestor
system.cpu1.l2cache.tags.occ_blocks::.switch_cpus_11.data    64.205636                       # Average occupied blocks per requestor
system.cpu1.l2cache.tags.occ_percent::.cpu1.inst     0.000001                       # Average percentage of cache occupancy
system.cpu1.l2cache.tags.occ_percent::.cpu1.data     0.000005                       # Average percentage of cache occupancy
system.cpu1.l2cache.tags.occ_percent::.switch_cpus1.inst     0.000172                       # Average percentage of cache occupancy
system.cpu1.l2cache.tags.occ_percent::.switch_cpus1.data     0.002778                       # Average percentage of cache occupancy
system.cpu1.l2cache.tags.occ_percent::.switch_cpus_11.inst     0.000045                       # Average percentage of cache occupancy
system.cpu1.l2cache.tags.occ_percent::.switch_cpus_11.data     0.015675                       # Average percentage of cache occupancy
system.cpu1.l2cache.tags.occ_percent::total     0.018676                       # Average percentage of cache occupancy
system.cpu1.l2cache.tags.occ_task_id_blocks::1024         4096                       # Occupied blocks per task id
system.cpu1.l2cache.tags.age_task_id_blocks_1024::0            1                       # Occupied blocks per task id
system.cpu1.l2cache.tags.age_task_id_blocks_1024::1           80                       # Occupied blocks per task id
system.cpu1.l2cache.tags.age_task_id_blocks_1024::2         1040                       # Occupied blocks per task id
system.cpu1.l2cache.tags.age_task_id_blocks_1024::3         2466                       # Occupied blocks per task id
system.cpu1.l2cache.tags.age_task_id_blocks_1024::4          509                       # Occupied blocks per task id
system.cpu1.l2cache.tags.occ_task_id_percent::1024            1                       # Percentage of cache occupancy per task id
system.cpu1.l2cache.tags.tag_accesses         1841474                       # Number of tag accesses
system.cpu1.l2cache.tags.data_accesses        1841474                       # Number of data accesses
system.cpu1.toL2Bus.pwrStateResidencyTicks::UNDEFINED 1320573367953                       # Cumulative time (in ticks) in various power states
system.cpu1.toL2Bus.trans_dist::ReadResp        56872                       # Transaction distribution
system.cpu1.toL2Bus.trans_dist::WritebackDirty          185                       # Transaction distribution
system.cpu1.toL2Bus.trans_dist::CleanEvict        82506                       # Transaction distribution
system.cpu1.toL2Bus.trans_dist::ReadExReq          148                       # Transaction distribution
system.cpu1.toL2Bus.trans_dist::ReadExResp          148                       # Transaction distribution
system.cpu1.toL2Bus.trans_dist::ReadCleanReq          285                       # Transaction distribution
system.cpu1.toL2Bus.trans_dist::ReadSharedReq        56587                       # Transaction distribution
system.cpu1.toL2Bus.pkt_count_system.cpu1.icache.mem_side::system.cpu1.l2cache.cpu_side          570                       # Packet count per connected master and slave (bytes)
system.cpu1.toL2Bus.pkt_count_system.cpu1.dcache.mem_side::system.cpu1.l2cache.cpu_side       169693                       # Packet count per connected master and slave (bytes)
system.cpu1.toL2Bus.pkt_count::total           170263                       # Packet count per connected master and slave (bytes)
system.cpu1.toL2Bus.pkt_size_system.cpu1.icache.mem_side::system.cpu1.l2cache.cpu_side        18240                       # Cumulative packet size per connected master and slave (bytes)
system.cpu1.toL2Bus.pkt_size_system.cpu1.dcache.mem_side::system.cpu1.l2cache.cpu_side      3642368                       # Cumulative packet size per connected master and slave (bytes)
system.cpu1.toL2Bus.pkt_size::total           3660608                       # Cumulative packet size per connected master and slave (bytes)
system.cpu1.toL2Bus.snoops                      26468                       # Total snoops (count)
system.cpu1.toL2Bus.snoopTraffic                  512                       # Total snoop traffic (bytes)
system.cpu1.toL2Bus.snoop_fanout::samples        83488                       # Request fanout histogram
system.cpu1.toL2Bus.snoop_fanout::mean       0.006552                       # Request fanout histogram
system.cpu1.toL2Bus.snoop_fanout::stdev      0.080678                       # Request fanout histogram
system.cpu1.toL2Bus.snoop_fanout::underflows            0      0.00%      0.00% # Request fanout histogram
system.cpu1.toL2Bus.snoop_fanout::0             82941     99.34%     99.34% # Request fanout histogram
system.cpu1.toL2Bus.snoop_fanout::1               547      0.66%    100.00% # Request fanout histogram
system.cpu1.toL2Bus.snoop_fanout::2                 0      0.00%    100.00% # Request fanout histogram
system.cpu1.toL2Bus.snoop_fanout::3                 0      0.00%    100.00% # Request fanout histogram
system.cpu1.toL2Bus.snoop_fanout::4                 0      0.00%    100.00% # Request fanout histogram
system.cpu1.toL2Bus.snoop_fanout::overflows            0      0.00%    100.00% # Request fanout histogram
system.cpu1.toL2Bus.snoop_fanout::min_value            0                       # Request fanout histogram
system.cpu1.toL2Bus.snoop_fanout::max_value            1                       # Request fanout histogram
system.cpu1.toL2Bus.snoop_fanout::total         83488                       # Request fanout histogram
system.cpu1.toL2Bus.reqLayer0.occupancy      47369115                       # Layer occupancy (ticks)
system.cpu1.toL2Bus.reqLayer0.utilization          0.2                       # Layer utilization (%)
system.cpu1.toL2Bus.respLayer1.occupancy     70974234                       # Layer occupancy (ticks)
system.cpu1.toL2Bus.respLayer1.utilization          0.3                       # Layer utilization (%)
system.cpu1.toL2Bus.respLayer0.occupancy       355284                       # Layer occupancy (ticks)
system.cpu1.toL2Bus.respLayer0.utilization          0.0                       # Layer utilization (%)
system.switch_cpus_10.pwrStateResidencyTicks::OFF  27221660337                       # Cumulative time (in ticks) in various power states
system.switch_cpus_10.dtb.walker.pwrStateResidencyTicks::UNDEFINED 1320573367953                       # Cumulative time (in ticks) in various power states
system.switch_cpus_10.itb.walker.pwrStateResidencyTicks::UNDEFINED 1320573367953                       # Cumulative time (in ticks) in various power states
system.switch_cpus_11.pwrStateResidencyTicks::OFF  27221660337                       # Cumulative time (in ticks) in various power states
system.switch_cpus_11.dtb.walker.pwrStateResidencyTicks::UNDEFINED 1320573367953                       # Cumulative time (in ticks) in various power states
system.switch_cpus_11.itb.walker.pwrStateResidencyTicks::UNDEFINED 1320573367953                       # Cumulative time (in ticks) in various power states
system.cpu_voltage_domain.voltage                   1                       # Voltage in Volts
system.switch_cpus1.numPwrStateTransitions            1                       # Number of power state transitions
system.switch_cpus1.pwrStateResidencyTicks::UNDEFINED 1293351707616                       # Cumulative time (in ticks) in various power states
system.switch_cpus1.pwrStateResidencyTicks::OFF  27221660337                       # Cumulative time (in ticks) in various power states
system.switch_cpus1.dtb.walker.pwrStateResidencyTicks::UNDEFINED 1320573367953                       # Cumulative time (in ticks) in various power states
system.switch_cpus1.itb.walker.pwrStateResidencyTicks::UNDEFINED 1320573367953                       # Cumulative time (in ticks) in various power states
system.mem_ctrls.pwrStateResidencyTicks::UNDEFINED 1320573367953                       # Cumulative time (in ticks) in various power states
system.mem_ctrls.bytes_read::.cpu0.inst            64                       # Number of bytes read from this memory
system.mem_ctrls.bytes_read::.cpu0.data            64                       # Number of bytes read from this memory
system.mem_ctrls.bytes_read::.cpu1.inst            64                       # Number of bytes read from this memory
system.mem_ctrls.bytes_read::.cpu1.data            64                       # Number of bytes read from this memory
system.mem_ctrls.bytes_read::.switch_cpus0.data      1335296                       # Number of bytes read from this memory
system.mem_ctrls.bytes_read::.switch_cpus1.inst        12672                       # Number of bytes read from this memory
system.mem_ctrls.bytes_read::.switch_cpus1.data        78784                       # Number of bytes read from this memory
system.mem_ctrls.bytes_read::.switch_cpus_10.inst          128                       # Number of bytes read from this memory
system.mem_ctrls.bytes_read::.switch_cpus_10.data      7385856                       # Number of bytes read from this memory
system.mem_ctrls.bytes_read::.switch_cpus_11.inst         5504                       # Number of bytes read from this memory
system.mem_ctrls.bytes_read::.switch_cpus_11.data      1842240                       # Number of bytes read from this memory
system.mem_ctrls.bytes_read::total           10660736                       # Number of bytes read from this memory
system.mem_ctrls.bytes_inst_read::.cpu0.inst           64                       # Number of instructions bytes read from this memory
system.mem_ctrls.bytes_inst_read::.cpu1.inst           64                       # Number of instructions bytes read from this memory
system.mem_ctrls.bytes_inst_read::.switch_cpus1.inst        12672                       # Number of instructions bytes read from this memory
system.mem_ctrls.bytes_inst_read::.switch_cpus_10.inst          128                       # Number of instructions bytes read from this memory
system.mem_ctrls.bytes_inst_read::.switch_cpus_11.inst         5504                       # Number of instructions bytes read from this memory
system.mem_ctrls.bytes_inst_read::total         18432                       # Number of instructions bytes read from this memory
system.mem_ctrls.bytes_written::.cpu0.data           64                       # Number of bytes written to this memory
system.mem_ctrls.bytes_written::.switch_cpus0.data      1335296                       # Number of bytes written to this memory
system.mem_ctrls.bytes_written::.switch_cpus1.data           64                       # Number of bytes written to this memory
system.mem_ctrls.bytes_written::.switch_cpus_10.data      5288640                       # Number of bytes written to this memory
system.mem_ctrls.bytes_written::total         6624064                       # Number of bytes written to this memory
system.mem_ctrls.num_reads::.cpu0.inst              1                       # Number of read requests responded to by this memory
system.mem_ctrls.num_reads::.cpu0.data              1                       # Number of read requests responded to by this memory
system.mem_ctrls.num_reads::.cpu1.inst              1                       # Number of read requests responded to by this memory
system.mem_ctrls.num_reads::.cpu1.data              1                       # Number of read requests responded to by this memory
system.mem_ctrls.num_reads::.switch_cpus0.data        20864                       # Number of read requests responded to by this memory
system.mem_ctrls.num_reads::.switch_cpus1.inst          198                       # Number of read requests responded to by this memory
system.mem_ctrls.num_reads::.switch_cpus1.data         1231                       # Number of read requests responded to by this memory
system.mem_ctrls.num_reads::.switch_cpus_10.inst            2                       # Number of read requests responded to by this memory
system.mem_ctrls.num_reads::.switch_cpus_10.data       115404                       # Number of read requests responded to by this memory
system.mem_ctrls.num_reads::.switch_cpus_11.inst           86                       # Number of read requests responded to by this memory
system.mem_ctrls.num_reads::.switch_cpus_11.data        28785                       # Number of read requests responded to by this memory
system.mem_ctrls.num_reads::total              166574                       # Number of read requests responded to by this memory
system.mem_ctrls.num_writes::.cpu0.data             1                       # Number of write requests responded to by this memory
system.mem_ctrls.num_writes::.switch_cpus0.data        20864                       # Number of write requests responded to by this memory
system.mem_ctrls.num_writes::.switch_cpus1.data            1                       # Number of write requests responded to by this memory
system.mem_ctrls.num_writes::.switch_cpus_10.data        82635                       # Number of write requests responded to by this memory
system.mem_ctrls.num_writes::total             103501                       # Number of write requests responded to by this memory
system.mem_ctrls.bw_read::.cpu0.inst             2351                       # Total read bandwidth from this memory (bytes/s)
system.mem_ctrls.bw_read::.cpu0.data             2351                       # Total read bandwidth from this memory (bytes/s)
system.mem_ctrls.bw_read::.cpu1.inst             2351                       # Total read bandwidth from this memory (bytes/s)
system.mem_ctrls.bw_read::.cpu1.data             2351                       # Total read bandwidth from this memory (bytes/s)
system.mem_ctrls.bw_read::.switch_cpus0.data     49052702                       # Total read bandwidth from this memory (bytes/s)
system.mem_ctrls.bw_read::.switch_cpus1.inst       465512                       # Total read bandwidth from this memory (bytes/s)
system.mem_ctrls.bw_read::.switch_cpus1.data      2894166                       # Total read bandwidth from this memory (bytes/s)
system.mem_ctrls.bw_read::.switch_cpus_10.inst         4702                       # Total read bandwidth from this memory (bytes/s)
system.mem_ctrls.bw_read::.switch_cpus_10.data    271322759                       # Total read bandwidth from this memory (bytes/s)
system.mem_ctrls.bw_read::.switch_cpus_11.inst       202192                       # Total read bandwidth from this memory (bytes/s)
system.mem_ctrls.bw_read::.switch_cpus_11.data     67675519                       # Total read bandwidth from this memory (bytes/s)
system.mem_ctrls.bw_read::total             391626957                       # Total read bandwidth from this memory (bytes/s)
system.mem_ctrls.bw_inst_read::.cpu0.inst         2351                       # Instruction read bandwidth from this memory (bytes/s)
system.mem_ctrls.bw_inst_read::.cpu1.inst         2351                       # Instruction read bandwidth from this memory (bytes/s)
system.mem_ctrls.bw_inst_read::.switch_cpus1.inst       465512                       # Instruction read bandwidth from this memory (bytes/s)
system.mem_ctrls.bw_inst_read::.switch_cpus_10.inst         4702                       # Instruction read bandwidth from this memory (bytes/s)
system.mem_ctrls.bw_inst_read::.switch_cpus_11.inst       202192                       # Instruction read bandwidth from this memory (bytes/s)
system.mem_ctrls.bw_inst_read::total           677108                       # Instruction read bandwidth from this memory (bytes/s)
system.mem_ctrls.bw_write::.cpu0.data            2351                       # Write bandwidth from this memory (bytes/s)
system.mem_ctrls.bw_write::.switch_cpus0.data     49052702                       # Write bandwidth from this memory (bytes/s)
system.mem_ctrls.bw_write::.switch_cpus1.data         2351                       # Write bandwidth from this memory (bytes/s)
system.mem_ctrls.bw_write::.switch_cpus_10.data    194280582                       # Write bandwidth from this memory (bytes/s)
system.mem_ctrls.bw_write::total            243337986                       # Write bandwidth from this memory (bytes/s)
system.mem_ctrls.bw_total::.cpu0.inst            2351                       # Total bandwidth to/from this memory (bytes/s)
system.mem_ctrls.bw_total::.cpu0.data            4702                       # Total bandwidth to/from this memory (bytes/s)
system.mem_ctrls.bw_total::.cpu1.inst            2351                       # Total bandwidth to/from this memory (bytes/s)
system.mem_ctrls.bw_total::.cpu1.data            2351                       # Total bandwidth to/from this memory (bytes/s)
system.mem_ctrls.bw_total::.switch_cpus0.data     98105405                       # Total bandwidth to/from this memory (bytes/s)
system.mem_ctrls.bw_total::.switch_cpus1.inst       465512                       # Total bandwidth to/from this memory (bytes/s)
system.mem_ctrls.bw_total::.switch_cpus1.data      2896517                       # Total bandwidth to/from this memory (bytes/s)
system.mem_ctrls.bw_total::.switch_cpus_10.inst         4702                       # Total bandwidth to/from this memory (bytes/s)
system.mem_ctrls.bw_total::.switch_cpus_10.data    465603341                       # Total bandwidth to/from this memory (bytes/s)
system.mem_ctrls.bw_total::.switch_cpus_11.inst       202192                       # Total bandwidth to/from this memory (bytes/s)
system.mem_ctrls.bw_total::.switch_cpus_11.data     67675519                       # Total bandwidth to/from this memory (bytes/s)
system.mem_ctrls.bw_total::total            634964943                       # Total bandwidth to/from this memory (bytes/s)
system.cpu_clk_domain.clock                       417                       # Clock period in ticks

---------- End Simulation Statistics   ----------
