
---------- Begin Simulation Statistics ----------
final_tick                               1319058090033                       # Number of ticks from beginning of simulation (restored from checkpoints and never reset)
host_inst_rate                                 150188                       # Simulator instruction rate (inst/s)
host_mem_usage                                4588876                       # Number of bytes of host memory used
host_op_rate                                   271859                       # Simulator op (including micro ops) rate (op/s)
host_seconds                                   599.93                       # Real time elapsed on the host
host_tick_rate                               42849276                       # Simulator tick rate (ticks/s)
sim_freq                                 1000000000000                       # Frequency of simulated ticks
sim_insts                                    90101866                       # Number of instructions simulated
sim_ops                                     163095471                       # Number of ops (including micro ops) simulated
sim_seconds                                  0.025706                       # Number of seconds simulated
sim_ticks                                 25706382417                       # Number of ticks simulated
system.cpu0.committedInsts                          2                       # Number of instructions committed
system.cpu0.committedOps                            4                       # Number of ops (including micro ops) committed
system.cpu0.dtb.rdAccesses                          0                       # TLB accesses on read requests
system.cpu0.dtb.rdMisses                            0                       # TLB misses on read requests
system.cpu0.dtb.wrAccesses                          0                       # TLB accesses on write requests
system.cpu0.dtb.wrMisses                            0                       # TLB misses on write requests
system.cpu0.idle_fraction                           0                       # Percentage of idle cycles
system.cpu0.itb.rdAccesses                          0                       # TLB accesses on read requests
system.cpu0.itb.rdMisses                            0                       # TLB misses on read requests
system.cpu0.itb.wrAccesses                          3                       # TLB accesses on write requests
system.cpu0.itb.wrMisses                            0                       # TLB misses on write requests
system.cpu0.not_idle_fraction                       1                       # Percentage of non-idle cycles
system.cpu0.numCycles                               5                       # number of cpu cycles simulated
system.cpu0.numWorkItemsCompleted                   0                       # number of work items this cpu completed
system.cpu0.numWorkItemsStarted                     0                       # number of work items this cpu started
system.cpu0.num_busy_cycles                         5                       # Number of busy cycles
system.cpu0.num_cc_register_writes                  2                       # number of times the CC registers were written
system.cpu0.num_conditional_control_insts            0                       # number of instructions that are conditional controls
system.cpu0.num_fp_alu_accesses                     0                       # Number of float alu accesses
system.cpu0.num_fp_insts                            0                       # number of float instructions
system.cpu0.num_fp_register_reads                   0                       # number of times the floating registers were read
system.cpu0.num_fp_register_writes                  0                       # number of times the floating registers were written
system.cpu0.num_func_calls                          0                       # number of times a function call or return occured
system.cpu0.num_idle_cycles                         0                       # Number of idle cycles
system.cpu0.num_int_alu_accesses                    4                       # Number of integer alu accesses
system.cpu0.num_int_insts                           4                       # number of integer instructions
system.cpu0.num_int_register_reads                  6                       # number of times the integer registers were read
system.cpu0.num_int_register_writes                 4                       # number of times the integer registers were written
system.cpu0.num_load_insts                          0                       # Number of load instructions
system.cpu0.num_mem_refs                            0                       # number of memory refs
system.cpu0.num_store_insts                         0                       # Number of store instructions
system.cpu0.num_vec_alu_accesses                    0                       # Number of vector alu accesses
system.cpu0.num_vec_insts                           0                       # number of vector instructions
system.cpu0.num_vec_register_reads                  0                       # number of times the vector registers were read
system.cpu0.num_vec_register_writes                 0                       # number of times the vector registers were written
system.cpu0.op_class::No_OpClass                    0      0.00%      0.00% # Class of executed instruction
system.cpu0.op_class::IntAlu                        4    100.00%    100.00% # Class of executed instruction
system.cpu0.op_class::IntMult                       0      0.00%    100.00% # Class of executed instruction
system.cpu0.op_class::IntDiv                        0      0.00%    100.00% # Class of executed instruction
system.cpu0.op_class::FloatAdd                      0      0.00%    100.00% # Class of executed instruction
system.cpu0.op_class::FloatCmp                      0      0.00%    100.00% # Class of executed instruction
system.cpu0.op_class::FloatCvt                      0      0.00%    100.00% # Class of executed instruction
system.cpu0.op_class::FloatMult                     0      0.00%    100.00% # Class of executed instruction
system.cpu0.op_class::FloatMultAcc                  0      0.00%    100.00% # Class of executed instruction
system.cpu0.op_class::FloatDiv                      0      0.00%    100.00% # Class of executed instruction
system.cpu0.op_class::FloatMisc                     0      0.00%    100.00% # Class of executed instruction
system.cpu0.op_class::FloatSqrt                     0      0.00%    100.00% # Class of executed instruction
system.cpu0.op_class::SimdAdd                       0      0.00%    100.00% # Class of executed instruction
system.cpu0.op_class::SimdAddAcc                    0      0.00%    100.00% # Class of executed instruction
system.cpu0.op_class::SimdAlu                       0      0.00%    100.00% # Class of executed instruction
system.cpu0.op_class::SimdCmp                       0      0.00%    100.00% # Class of executed instruction
system.cpu0.op_class::SimdCvt                       0      0.00%    100.00% # Class of executed instruction
system.cpu0.op_class::SimdMisc                      0      0.00%    100.00% # Class of executed instruction
system.cpu0.op_class::SimdMult                      0      0.00%    100.00% # Class of executed instruction
system.cpu0.op_class::SimdMultAcc                   0      0.00%    100.00% # Class of executed instruction
system.cpu0.op_class::SimdShift                     0      0.00%    100.00% # Class of executed instruction
system.cpu0.op_class::SimdShiftAcc                  0      0.00%    100.00% # Class of executed instruction
system.cpu0.op_class::SimdDiv                       0      0.00%    100.00% # Class of executed instruction
system.cpu0.op_class::SimdSqrt                      0      0.00%    100.00% # Class of executed instruction
system.cpu0.op_class::SimdFloatAdd                  0      0.00%    100.00% # Class of executed instruction
system.cpu0.op_class::SimdFloatAlu                  0      0.00%    100.00% # Class of executed instruction
system.cpu0.op_class::SimdFloatCmp                  0      0.00%    100.00% # Class of executed instruction
system.cpu0.op_class::SimdFloatCvt                  0      0.00%    100.00% # Class of executed instruction
system.cpu0.op_class::SimdFloatDiv                  0      0.00%    100.00% # Class of executed instruction
system.cpu0.op_class::SimdFloatMisc                 0      0.00%    100.00% # Class of executed instruction
system.cpu0.op_class::SimdFloatMult                 0      0.00%    100.00% # Class of executed instruction
system.cpu0.op_class::SimdFloatMultAcc              0      0.00%    100.00% # Class of executed instruction
system.cpu0.op_class::SimdFloatSqrt                 0      0.00%    100.00% # Class of executed instruction
system.cpu0.op_class::SimdReduceAdd                 0      0.00%    100.00% # Class of executed instruction
system.cpu0.op_class::SimdReduceAlu                 0      0.00%    100.00% # Class of executed instruction
system.cpu0.op_class::SimdReduceCmp                 0      0.00%    100.00% # Class of executed instruction
system.cpu0.op_class::SimdFloatReduceAdd            0      0.00%    100.00% # Class of executed instruction
system.cpu0.op_class::SimdFloatReduceCmp            0      0.00%    100.00% # Class of executed instruction
system.cpu0.op_class::SimdAes                       0      0.00%    100.00% # Class of executed instruction
system.cpu0.op_class::SimdAesMix                    0      0.00%    100.00% # Class of executed instruction
system.cpu0.op_class::SimdSha1Hash                  0      0.00%    100.00% # Class of executed instruction
system.cpu0.op_class::SimdSha1Hash2                 0      0.00%    100.00% # Class of executed instruction
system.cpu0.op_class::SimdSha256Hash                0      0.00%    100.00% # Class of executed instruction
system.cpu0.op_class::SimdSha256Hash2               0      0.00%    100.00% # Class of executed instruction
system.cpu0.op_class::SimdShaSigma2                 0      0.00%    100.00% # Class of executed instruction
system.cpu0.op_class::SimdShaSigma3                 0      0.00%    100.00% # Class of executed instruction
system.cpu0.op_class::SimdPredAlu                   0      0.00%    100.00% # Class of executed instruction
system.cpu0.op_class::MemRead                       0      0.00%    100.00% # Class of executed instruction
system.cpu0.op_class::MemWrite                      0      0.00%    100.00% # Class of executed instruction
system.cpu0.op_class::FloatMemRead                  0      0.00%    100.00% # Class of executed instruction
system.cpu0.op_class::FloatMemWrite                 0      0.00%    100.00% # Class of executed instruction
system.cpu0.op_class::IprAccess                     0      0.00%    100.00% # Class of executed instruction
system.cpu0.op_class::InstPrefetch                  0      0.00%    100.00% # Class of executed instruction
system.cpu0.op_class::total                         4                       # Class of executed instruction
system.cpu0.toL2Bus.snoop_filter.hit_multi_requests          319                       # Number of requests hitting in the snoop filter with multiple (>1) holders of the requested data.
system.cpu0.toL2Bus.snoop_filter.hit_multi_snoops           10                       # Number of snoops hitting in the snoop filter with multiple (>1) holders of the requested data.
system.cpu0.toL2Bus.snoop_filter.hit_single_requests       313880                       # Number of requests hitting in the snoop filter with a single holder of the requested data.
system.cpu0.toL2Bus.snoop_filter.hit_single_snoops         2006                       # Number of snoops hitting in the snoop filter with a single holder of the requested data.
system.cpu0.toL2Bus.snoop_filter.tot_requests       628094                       # Total number of requests made to the snoop filter.
system.cpu0.toL2Bus.snoop_filter.tot_snoops         2016                       # Total number of snoops made to the snoop filter.
system.cpu0.toL3Bus.snoop_filter.hit_multi_requests            0                       # Number of requests hitting in the snoop filter with multiple (>1) holders of the requested data.
system.cpu0.toL3Bus.snoop_filter.hit_multi_snoops            0                       # Number of snoops hitting in the snoop filter with multiple (>1) holders of the requested data.
system.cpu0.toL3Bus.snoop_filter.hit_single_requests       202615                       # Number of requests hitting in the snoop filter with a single holder of the requested data.
system.cpu0.toL3Bus.snoop_filter.hit_single_snoops          524                       # Number of snoops hitting in the snoop filter with a single holder of the requested data.
system.cpu0.toL3Bus.snoop_filter.tot_requests       409837                       # Total number of requests made to the snoop filter.
system.cpu0.toL3Bus.snoop_filter.tot_snoops          524                       # Total number of snoops made to the snoop filter.
system.cpu0.workload.numSyscalls                  229                       # Number of system calls
system.cpu1.Branches                                1                       # Number of branches fetched
system.cpu1.committedInsts                          1                       # Number of instructions committed
system.cpu1.committedOps                            5                       # Number of ops (including micro ops) committed
system.cpu1.dtb.rdAccesses                          0                       # TLB accesses on read requests
system.cpu1.dtb.rdMisses                            0                       # TLB misses on read requests
system.cpu1.dtb.wrAccesses                          1                       # TLB accesses on write requests
system.cpu1.dtb.wrMisses                            0                       # TLB misses on write requests
system.cpu1.idle_fraction                           0                       # Percentage of idle cycles
system.cpu1.itb.rdAccesses                          0                       # TLB accesses on read requests
system.cpu1.itb.rdMisses                            0                       # TLB misses on read requests
system.cpu1.itb.wrAccesses                          2                       # TLB accesses on write requests
system.cpu1.itb.wrMisses                            0                       # TLB misses on write requests
system.cpu1.not_idle_fraction                       1                       # Percentage of non-idle cycles
system.cpu1.numCycles                               6                       # number of cpu cycles simulated
system.cpu1.numWorkItemsCompleted                   0                       # number of work items this cpu completed
system.cpu1.numWorkItemsStarted                     0                       # number of work items this cpu started
system.cpu1.num_busy_cycles                         6                       # Number of busy cycles
system.cpu1.num_conditional_control_insts            0                       # number of instructions that are conditional controls
system.cpu1.num_fp_alu_accesses                     0                       # Number of float alu accesses
system.cpu1.num_fp_insts                            0                       # number of float instructions
system.cpu1.num_fp_register_reads                   0                       # number of times the floating registers were read
system.cpu1.num_fp_register_writes                  0                       # number of times the floating registers were written
system.cpu1.num_func_calls                          1                       # number of times a function call or return occured
system.cpu1.num_idle_cycles                         0                       # Number of idle cycles
system.cpu1.num_int_alu_accesses                    5                       # Number of integer alu accesses
system.cpu1.num_int_insts                           5                       # number of integer instructions
system.cpu1.num_int_register_reads                  9                       # number of times the integer registers were read
system.cpu1.num_int_register_writes                 3                       # number of times the integer registers were written
system.cpu1.num_load_insts                          0                       # Number of load instructions
system.cpu1.num_mem_refs                            1                       # number of memory refs
system.cpu1.num_store_insts                         1                       # Number of store instructions
system.cpu1.num_vec_alu_accesses                    0                       # Number of vector alu accesses
system.cpu1.num_vec_insts                           0                       # number of vector instructions
system.cpu1.num_vec_register_reads                  0                       # number of times the vector registers were read
system.cpu1.num_vec_register_writes                 0                       # number of times the vector registers were written
system.cpu1.op_class::No_OpClass                    0      0.00%      0.00% # Class of executed instruction
system.cpu1.op_class::IntAlu                        4     80.00%     80.00% # Class of executed instruction
system.cpu1.op_class::IntMult                       0      0.00%     80.00% # Class of executed instruction
system.cpu1.op_class::IntDiv                        0      0.00%     80.00% # Class of executed instruction
system.cpu1.op_class::FloatAdd                      0      0.00%     80.00% # Class of executed instruction
system.cpu1.op_class::FloatCmp                      0      0.00%     80.00% # Class of executed instruction
system.cpu1.op_class::FloatCvt                      0      0.00%     80.00% # Class of executed instruction
system.cpu1.op_class::FloatMult                     0      0.00%     80.00% # Class of executed instruction
system.cpu1.op_class::FloatMultAcc                  0      0.00%     80.00% # Class of executed instruction
system.cpu1.op_class::FloatDiv                      0      0.00%     80.00% # Class of executed instruction
system.cpu1.op_class::FloatMisc                     0      0.00%     80.00% # Class of executed instruction
system.cpu1.op_class::FloatSqrt                     0      0.00%     80.00% # Class of executed instruction
system.cpu1.op_class::SimdAdd                       0      0.00%     80.00% # Class of executed instruction
system.cpu1.op_class::SimdAddAcc                    0      0.00%     80.00% # Class of executed instruction
system.cpu1.op_class::SimdAlu                       0      0.00%     80.00% # Class of executed instruction
system.cpu1.op_class::SimdCmp                       0      0.00%     80.00% # Class of executed instruction
system.cpu1.op_class::SimdCvt                       0      0.00%     80.00% # Class of executed instruction
system.cpu1.op_class::SimdMisc                      0      0.00%     80.00% # Class of executed instruction
system.cpu1.op_class::SimdMult                      0      0.00%     80.00% # Class of executed instruction
system.cpu1.op_class::SimdMultAcc                   0      0.00%     80.00% # Class of executed instruction
system.cpu1.op_class::SimdShift                     0      0.00%     80.00% # Class of executed instruction
system.cpu1.op_class::SimdShiftAcc                  0      0.00%     80.00% # Class of executed instruction
system.cpu1.op_class::SimdDiv                       0      0.00%     80.00% # Class of executed instruction
system.cpu1.op_class::SimdSqrt                      0      0.00%     80.00% # Class of executed instruction
system.cpu1.op_class::SimdFloatAdd                  0      0.00%     80.00% # Class of executed instruction
system.cpu1.op_class::SimdFloatAlu                  0      0.00%     80.00% # Class of executed instruction
system.cpu1.op_class::SimdFloatCmp                  0      0.00%     80.00% # Class of executed instruction
system.cpu1.op_class::SimdFloatCvt                  0      0.00%     80.00% # Class of executed instruction
system.cpu1.op_class::SimdFloatDiv                  0      0.00%     80.00% # Class of executed instruction
system.cpu1.op_class::SimdFloatMisc                 0      0.00%     80.00% # Class of executed instruction
system.cpu1.op_class::SimdFloatMult                 0      0.00%     80.00% # Class of executed instruction
system.cpu1.op_class::SimdFloatMultAcc              0      0.00%     80.00% # Class of executed instruction
system.cpu1.op_class::SimdFloatSqrt                 0      0.00%     80.00% # Class of executed instruction
system.cpu1.op_class::SimdReduceAdd                 0      0.00%     80.00% # Class of executed instruction
system.cpu1.op_class::SimdReduceAlu                 0      0.00%     80.00% # Class of executed instruction
system.cpu1.op_class::SimdReduceCmp                 0      0.00%     80.00% # Class of executed instruction
system.cpu1.op_class::SimdFloatReduceAdd            0      0.00%     80.00% # Class of executed instruction
system.cpu1.op_class::SimdFloatReduceCmp            0      0.00%     80.00% # Class of executed instruction
system.cpu1.op_class::SimdAes                       0      0.00%     80.00% # Class of executed instruction
system.cpu1.op_class::SimdAesMix                    0      0.00%     80.00% # Class of executed instruction
system.cpu1.op_class::SimdSha1Hash                  0      0.00%     80.00% # Class of executed instruction
system.cpu1.op_class::SimdSha1Hash2                 0      0.00%     80.00% # Class of executed instruction
system.cpu1.op_class::SimdSha256Hash                0      0.00%     80.00% # Class of executed instruction
system.cpu1.op_class::SimdSha256Hash2               0      0.00%     80.00% # Class of executed instruction
system.cpu1.op_class::SimdShaSigma2                 0      0.00%     80.00% # Class of executed instruction
system.cpu1.op_class::SimdShaSigma3                 0      0.00%     80.00% # Class of executed instruction
system.cpu1.op_class::SimdPredAlu                   0      0.00%     80.00% # Class of executed instruction
system.cpu1.op_class::MemRead                       0      0.00%     80.00% # Class of executed instruction
system.cpu1.op_class::MemWrite                      1     20.00%    100.00% # Class of executed instruction
system.cpu1.op_class::FloatMemRead                  0      0.00%    100.00% # Class of executed instruction
system.cpu1.op_class::FloatMemWrite                 0      0.00%    100.00% # Class of executed instruction
system.cpu1.op_class::IprAccess                     0      0.00%    100.00% # Class of executed instruction
system.cpu1.op_class::InstPrefetch                  0      0.00%    100.00% # Class of executed instruction
system.cpu1.op_class::total                         5                       # Class of executed instruction
system.cpu1.toL2Bus.snoop_filter.hit_multi_requests           48                       # Number of requests hitting in the snoop filter with multiple (>1) holders of the requested data.
system.cpu1.toL2Bus.snoop_filter.hit_multi_snoops            0                       # Number of snoops hitting in the snoop filter with multiple (>1) holders of the requested data.
system.cpu1.toL2Bus.snoop_filter.hit_single_requests        56216                       # Number of requests hitting in the snoop filter with a single holder of the requested data.
system.cpu1.toL2Bus.snoop_filter.hit_single_snoops          500                       # Number of snoops hitting in the snoop filter with a single holder of the requested data.
system.cpu1.toL2Bus.snoop_filter.tot_requests       113230                       # Total number of requests made to the snoop filter.
system.cpu1.toL2Bus.snoop_filter.tot_snoops          500                       # Total number of snoops made to the snoop filter.
system.cpu1.toL3Bus.snoop_filter.hit_multi_requests            0                       # Number of requests hitting in the snoop filter with multiple (>1) holders of the requested data.
system.cpu1.toL3Bus.snoop_filter.hit_multi_snoops            0                       # Number of snoops hitting in the snoop filter with multiple (>1) holders of the requested data.
system.cpu1.toL3Bus.snoop_filter.hit_single_requests        25904                       # Number of requests hitting in the snoop filter with a single holder of the requested data.
system.cpu1.toL3Bus.snoop_filter.hit_single_snoops          234                       # Number of snoops hitting in the snoop filter with a single holder of the requested data.
system.cpu1.toL3Bus.snoop_filter.tot_requests        56227                       # Total number of requests made to the snoop filter.
system.cpu1.toL3Bus.snoop_filter.tot_snoops          234                       # Total number of snoops made to the snoop filter.
system.cpu1.workload.numSyscalls                16989                       # Number of system calls
system.membus.snoop_filter.hit_multi_requests            0                       # Number of requests hitting in the snoop filter with multiple (>1) holders of the requested data.
system.membus.snoop_filter.hit_multi_snoops            0                       # Number of snoops hitting in the snoop filter with multiple (>1) holders of the requested data.
system.membus.snoop_filter.hit_single_requests       167004                       # Number of requests hitting in the snoop filter with a single holder of the requested data.
system.membus.snoop_filter.hit_single_snoops            0                       # Number of snoops hitting in the snoop filter with a single holder of the requested data.
system.membus.snoop_filter.tot_requests        397001                       # Total number of requests made to the snoop filter.
system.membus.snoop_filter.tot_snoops               0                       # Total number of snoops made to the snoop filter.
system.switch_cpus0.Branches                   210935                       # Number of branches fetched
system.switch_cpus0.committedInsts             861696                       # Number of instructions committed
system.switch_cpus0.committedOps              1726565                       # Number of ops (including micro ops) committed
system.switch_cpus0.dtb.rdAccesses             232403                       # TLB accesses on read requests
system.switch_cpus0.dtb.rdMisses                 1351                       # TLB misses on read requests
system.switch_cpus0.dtb.wrAccesses              96429                       # TLB accesses on write requests
system.switch_cpus0.dtb.wrMisses                   18                       # TLB misses on write requests
system.switch_cpus0.idle_fraction            0.000000                       # Percentage of idle cycles
system.switch_cpus0.itb.rdAccesses                  0                       # TLB accesses on read requests
system.switch_cpus0.itb.rdMisses                    0                       # TLB misses on read requests
system.switch_cpus0.itb.wrAccesses            1110632                       # TLB accesses on write requests
system.switch_cpus0.itb.wrMisses                  325                       # TLB misses on write requests
system.switch_cpus0.not_idle_fraction        1.000000                       # Percentage of non-idle cycles
system.switch_cpus0.numCycles                 5562681                       # number of cpu cycles simulated
system.switch_cpus0.numWorkItemsCompleted            0                       # number of work items this cpu completed
system.switch_cpus0.numWorkItemsStarted             0                       # number of work items this cpu started
system.switch_cpus0.num_busy_cycles      5562680.458585                       # Number of busy cycles
system.switch_cpus0.num_cc_register_reads      1229183                       # number of times the CC registers were read
system.switch_cpus0.num_cc_register_writes       558634                       # number of times the CC registers were written
system.switch_cpus0.num_conditional_control_insts       142333                       # number of instructions that are conditional controls
system.switch_cpus0.num_fp_alu_accesses         29619                       # Number of float alu accesses
system.switch_cpus0.num_fp_insts                29619                       # number of float instructions
system.switch_cpus0.num_fp_register_reads        46566                       # number of times the floating registers were read
system.switch_cpus0.num_fp_register_writes        23921                       # number of times the floating registers were written
system.switch_cpus0.num_func_calls              43779                       # number of times a function call or return occured
system.switch_cpus0.num_idle_cycles          0.541415                       # Number of idle cycles
system.switch_cpus0.num_int_alu_accesses      1701809                       # Number of integer alu accesses
system.switch_cpus0.num_int_insts             1701809                       # number of integer instructions
system.switch_cpus0.num_int_register_reads      3341297                       # number of times the integer registers were read
system.switch_cpus0.num_int_register_writes      1392024                       # number of times the integer registers were written
system.switch_cpus0.num_load_insts             232181                       # Number of load instructions
system.switch_cpus0.num_mem_refs               328544                       # number of memory refs
system.switch_cpus0.num_store_insts             96363                       # Number of store instructions
system.switch_cpus0.num_vec_alu_accesses            0                       # Number of vector alu accesses
system.switch_cpus0.num_vec_insts                   0                       # number of vector instructions
system.switch_cpus0.num_vec_register_reads            0                       # number of times the vector registers were read
system.switch_cpus0.num_vec_register_writes            0                       # number of times the vector registers were written
system.switch_cpus0.op_class::No_OpClass         6359      0.37%      0.37% # Class of executed instruction
system.switch_cpus0.op_class::IntAlu          1369071     79.29%     79.66% # Class of executed instruction
system.switch_cpus0.op_class::IntMult              39      0.00%     79.66% # Class of executed instruction
system.switch_cpus0.op_class::IntDiv              155      0.01%     79.67% # Class of executed instruction
system.switch_cpus0.op_class::FloatAdd            147      0.01%     79.68% # Class of executed instruction
system.switch_cpus0.op_class::FloatCmp              0      0.00%     79.68% # Class of executed instruction
system.switch_cpus0.op_class::FloatCvt            144      0.01%     79.69% # Class of executed instruction
system.switch_cpus0.op_class::FloatMult             0      0.00%     79.69% # Class of executed instruction
system.switch_cpus0.op_class::FloatMultAcc            0      0.00%     79.69% # Class of executed instruction
system.switch_cpus0.op_class::FloatDiv              0      0.00%     79.69% # Class of executed instruction
system.switch_cpus0.op_class::FloatMisc             0      0.00%     79.69% # Class of executed instruction
system.switch_cpus0.op_class::FloatSqrt             0      0.00%     79.69% # Class of executed instruction
system.switch_cpus0.op_class::SimdAdd              68      0.00%     79.69% # Class of executed instruction
system.switch_cpus0.op_class::SimdAddAcc            0      0.00%     79.69% # Class of executed instruction
system.switch_cpus0.op_class::SimdAlu           12856      0.74%     80.44% # Class of executed instruction
system.switch_cpus0.op_class::SimdCmp               0      0.00%     80.44% # Class of executed instruction
system.switch_cpus0.op_class::SimdCvt            4498      0.26%     80.70% # Class of executed instruction
system.switch_cpus0.op_class::SimdMisc           4660      0.27%     80.97% # Class of executed instruction
system.switch_cpus0.op_class::SimdMult              0      0.00%     80.97% # Class of executed instruction
system.switch_cpus0.op_class::SimdMultAcc            0      0.00%     80.97% # Class of executed instruction
system.switch_cpus0.op_class::SimdShift            72      0.00%     80.97% # Class of executed instruction
system.switch_cpus0.op_class::SimdShiftAcc            0      0.00%     80.97% # Class of executed instruction
system.switch_cpus0.op_class::SimdDiv               0      0.00%     80.97% # Class of executed instruction
system.switch_cpus0.op_class::SimdSqrt              0      0.00%     80.97% # Class of executed instruction
system.switch_cpus0.op_class::SimdFloatAdd            0      0.00%     80.97% # Class of executed instruction
system.switch_cpus0.op_class::SimdFloatAlu            0      0.00%     80.97% # Class of executed instruction
system.switch_cpus0.op_class::SimdFloatCmp            0      0.00%     80.97% # Class of executed instruction
system.switch_cpus0.op_class::SimdFloatCvt           12      0.00%     80.97% # Class of executed instruction
system.switch_cpus0.op_class::SimdFloatDiv            0      0.00%     80.97% # Class of executed instruction
system.switch_cpus0.op_class::SimdFloatMisc            0      0.00%     80.97% # Class of executed instruction
system.switch_cpus0.op_class::SimdFloatMult            0      0.00%     80.97% # Class of executed instruction
system.switch_cpus0.op_class::SimdFloatMultAcc            0      0.00%     80.97% # Class of executed instruction
system.switch_cpus0.op_class::SimdFloatSqrt            0      0.00%     80.97% # Class of executed instruction
system.switch_cpus0.op_class::SimdReduceAdd            0      0.00%     80.97% # Class of executed instruction
system.switch_cpus0.op_class::SimdReduceAlu            0      0.00%     80.97% # Class of executed instruction
system.switch_cpus0.op_class::SimdReduceCmp            0      0.00%     80.97% # Class of executed instruction
system.switch_cpus0.op_class::SimdFloatReduceAdd            0      0.00%     80.97% # Class of executed instruction
system.switch_cpus0.op_class::SimdFloatReduceCmp            0      0.00%     80.97% # Class of executed instruction
system.switch_cpus0.op_class::SimdAes               0      0.00%     80.97% # Class of executed instruction
system.switch_cpus0.op_class::SimdAesMix            0      0.00%     80.97% # Class of executed instruction
system.switch_cpus0.op_class::SimdSha1Hash            0      0.00%     80.97% # Class of executed instruction
system.switch_cpus0.op_class::SimdSha1Hash2            0      0.00%     80.97% # Class of executed instruction
system.switch_cpus0.op_class::SimdSha256Hash            0      0.00%     80.97% # Class of executed instruction
system.switch_cpus0.op_class::SimdSha256Hash2            0      0.00%     80.97% # Class of executed instruction
system.switch_cpus0.op_class::SimdShaSigma2            0      0.00%     80.97% # Class of executed instruction
system.switch_cpus0.op_class::SimdShaSigma3            0      0.00%     80.97% # Class of executed instruction
system.switch_cpus0.op_class::SimdPredAlu            0      0.00%     80.97% # Class of executed instruction
system.switch_cpus0.op_class::MemRead          226589     13.12%     94.10% # Class of executed instruction
system.switch_cpus0.op_class::MemWrite          95035      5.50%     99.60% # Class of executed instruction
system.switch_cpus0.op_class::FloatMemRead         5592      0.32%     99.92% # Class of executed instruction
system.switch_cpus0.op_class::FloatMemWrite         1328      0.08%    100.00% # Class of executed instruction
system.switch_cpus0.op_class::IprAccess             0      0.00%    100.00% # Class of executed instruction
system.switch_cpus0.op_class::InstPrefetch            0      0.00%    100.00% # Class of executed instruction
system.switch_cpus0.op_class::total           1726625                       # Class of executed instruction
system.switch_cpus1.Branches                   224834                       # Number of branches fetched
system.switch_cpus1.committedInsts            1000001                       # Number of instructions committed
system.switch_cpus1.committedOps              2024684                       # Number of ops (including micro ops) committed
system.switch_cpus1.dtb.rdAccesses             291888                       # TLB accesses on read requests
system.switch_cpus1.dtb.rdMisses                   40                       # TLB misses on read requests
system.switch_cpus1.dtb.wrAccesses             213202                       # TLB accesses on write requests
system.switch_cpus1.dtb.wrMisses                    3                       # TLB misses on write requests
system.switch_cpus1.idle_fraction            0.000000                       # Percentage of idle cycles
system.switch_cpus1.itb.rdAccesses                  0                       # TLB accesses on read requests
system.switch_cpus1.itb.rdMisses                    0                       # TLB misses on read requests
system.switch_cpus1.itb.wrAccesses            1267697                       # TLB accesses on write requests
system.switch_cpus1.itb.wrMisses                   27                       # TLB misses on write requests
system.switch_cpus1.not_idle_fraction        1.000000                       # Percentage of non-idle cycles
system.switch_cpus1.numCycles                 5562681                       # number of cpu cycles simulated
system.switch_cpus1.numWorkItemsCompleted            0                       # number of work items this cpu completed
system.switch_cpus1.numWorkItemsStarted             0                       # number of work items this cpu started
system.switch_cpus1.num_busy_cycles      5562680.458585                       # Number of busy cycles
system.switch_cpus1.num_cc_register_reads       839766                       # number of times the CC registers were read
system.switch_cpus1.num_cc_register_writes       449805                       # number of times the CC registers were written
system.switch_cpus1.num_conditional_control_insts       102459                       # number of instructions that are conditional controls
system.switch_cpus1.num_fp_alu_accesses         16406                       # Number of float alu accesses
system.switch_cpus1.num_fp_insts                16406                       # number of float instructions
system.switch_cpus1.num_fp_register_reads        27540                       # number of times the floating registers were read
system.switch_cpus1.num_fp_register_writes        14430                       # number of times the floating registers were written
system.switch_cpus1.num_func_calls             106054                       # number of times a function call or return occured
system.switch_cpus1.num_idle_cycles          0.541415                       # Number of idle cycles
system.switch_cpus1.num_int_alu_accesses      2003876                       # Number of integer alu accesses
system.switch_cpus1.num_int_insts             2003876                       # number of integer instructions
system.switch_cpus1.num_int_register_reads      4247890                       # number of times the integer registers were read
system.switch_cpus1.num_int_register_writes      1572123                       # number of times the integer registers were written
system.switch_cpus1.num_load_insts             291886                       # Number of load instructions
system.switch_cpus1.num_mem_refs               505086                       # number of memory refs
system.switch_cpus1.num_store_insts            213200                       # Number of store instructions
system.switch_cpus1.num_vec_alu_accesses            0                       # Number of vector alu accesses
system.switch_cpus1.num_vec_insts                   0                       # number of vector instructions
system.switch_cpus1.num_vec_register_reads            0                       # number of times the vector registers were read
system.switch_cpus1.num_vec_register_writes            0                       # number of times the vector registers were written
system.switch_cpus1.op_class::No_OpClass         6797      0.34%      0.34% # Class of executed instruction
system.switch_cpus1.op_class::IntAlu          1497763     73.98%     74.31% # Class of executed instruction
system.switch_cpus1.op_class::IntMult             941      0.05%     74.36% # Class of executed instruction
system.switch_cpus1.op_class::IntDiv             2289      0.11%     74.47% # Class of executed instruction
system.switch_cpus1.op_class::FloatAdd            654      0.03%     74.50% # Class of executed instruction
system.switch_cpus1.op_class::FloatCmp              0      0.00%     74.50% # Class of executed instruction
system.switch_cpus1.op_class::FloatCvt              0      0.00%     74.50% # Class of executed instruction
system.switch_cpus1.op_class::FloatMult             0      0.00%     74.50% # Class of executed instruction
system.switch_cpus1.op_class::FloatMultAcc            0      0.00%     74.50% # Class of executed instruction
system.switch_cpus1.op_class::FloatDiv              0      0.00%     74.50% # Class of executed instruction
system.switch_cpus1.op_class::FloatMisc             0      0.00%     74.50% # Class of executed instruction
system.switch_cpus1.op_class::FloatSqrt             0      0.00%     74.50% # Class of executed instruction
system.switch_cpus1.op_class::SimdAdd               0      0.00%     74.50% # Class of executed instruction
system.switch_cpus1.op_class::SimdAddAcc            0      0.00%     74.50% # Class of executed instruction
system.switch_cpus1.op_class::SimdAlu            2624      0.13%     74.63% # Class of executed instruction
system.switch_cpus1.op_class::SimdCmp               0      0.00%     74.63% # Class of executed instruction
system.switch_cpus1.op_class::SimdCvt            2630      0.13%     74.76% # Class of executed instruction
system.switch_cpus1.op_class::SimdMisc           5900      0.29%     75.05% # Class of executed instruction
system.switch_cpus1.op_class::SimdMult              0      0.00%     75.05% # Class of executed instruction
system.switch_cpus1.op_class::SimdMultAcc            0      0.00%     75.05% # Class of executed instruction
system.switch_cpus1.op_class::SimdShift             0      0.00%     75.05% # Class of executed instruction
system.switch_cpus1.op_class::SimdShiftAcc            0      0.00%     75.05% # Class of executed instruction
system.switch_cpus1.op_class::SimdDiv               0      0.00%     75.05% # Class of executed instruction
system.switch_cpus1.op_class::SimdSqrt              0      0.00%     75.05% # Class of executed instruction
system.switch_cpus1.op_class::SimdFloatAdd            0      0.00%     75.05% # Class of executed instruction
system.switch_cpus1.op_class::SimdFloatAlu            0      0.00%     75.05% # Class of executed instruction
system.switch_cpus1.op_class::SimdFloatCmp            0      0.00%     75.05% # Class of executed instruction
system.switch_cpus1.op_class::SimdFloatCvt            0      0.00%     75.05% # Class of executed instruction
system.switch_cpus1.op_class::SimdFloatDiv            0      0.00%     75.05% # Class of executed instruction
system.switch_cpus1.op_class::SimdFloatMisc            0      0.00%     75.05% # Class of executed instruction
system.switch_cpus1.op_class::SimdFloatMult            0      0.00%     75.05% # Class of executed instruction
system.switch_cpus1.op_class::SimdFloatMultAcc            0      0.00%     75.05% # Class of executed instruction
system.switch_cpus1.op_class::SimdFloatSqrt            0      0.00%     75.05% # Class of executed instruction
system.switch_cpus1.op_class::SimdReduceAdd            0      0.00%     75.05% # Class of executed instruction
system.switch_cpus1.op_class::SimdReduceAlu            0      0.00%     75.05% # Class of executed instruction
system.switch_cpus1.op_class::SimdReduceCmp            0      0.00%     75.05% # Class of executed instruction
system.switch_cpus1.op_class::SimdFloatReduceAdd            0      0.00%     75.05% # Class of executed instruction
system.switch_cpus1.op_class::SimdFloatReduceCmp            0      0.00%     75.05% # Class of executed instruction
system.switch_cpus1.op_class::SimdAes               0      0.00%     75.05% # Class of executed instruction
system.switch_cpus1.op_class::SimdAesMix            0      0.00%     75.05% # Class of executed instruction
system.switch_cpus1.op_class::SimdSha1Hash            0      0.00%     75.05% # Class of executed instruction
system.switch_cpus1.op_class::SimdSha1Hash2            0      0.00%     75.05% # Class of executed instruction
system.switch_cpus1.op_class::SimdSha256Hash            0      0.00%     75.05% # Class of executed instruction
system.switch_cpus1.op_class::SimdSha256Hash2            0      0.00%     75.05% # Class of executed instruction
system.switch_cpus1.op_class::SimdShaSigma2            0      0.00%     75.05% # Class of executed instruction
system.switch_cpus1.op_class::SimdShaSigma3            0      0.00%     75.05% # Class of executed instruction
system.switch_cpus1.op_class::SimdPredAlu            0      0.00%     75.05% # Class of executed instruction
system.switch_cpus1.op_class::MemRead          289904     14.32%     89.37% # Class of executed instruction
system.switch_cpus1.op_class::MemWrite         212546     10.50%     99.87% # Class of executed instruction
system.switch_cpus1.op_class::FloatMemRead         1982      0.10%     99.97% # Class of executed instruction
system.switch_cpus1.op_class::FloatMemWrite          654      0.03%    100.00% # Class of executed instruction
system.switch_cpus1.op_class::IprAccess             0      0.00%    100.00% # Class of executed instruction
system.switch_cpus1.op_class::InstPrefetch            0      0.00%    100.00% # Class of executed instruction
system.switch_cpus1.op_class::total           2024684                       # Class of executed instruction
system.switch_cpus_10.branchPred.BTBCorrect            0                       # Number of correct BTB predictions (this stat may not work properly.
system.switch_cpus_10.branchPred.BTBHitPct     0.000000                       # BTB Hit Percentage
system.switch_cpus_10.branchPred.BTBHits            0                       # Number of BTB hits
system.switch_cpus_10.branchPred.BTBLookups      4302641                       # Number of BTB lookups
system.switch_cpus_10.branchPred.RASInCorrect          222                       # Number of incorrect RAS predictions.
system.switch_cpus_10.branchPred.condIncorrect       314053                       # Number of conditional branches incorrect
system.switch_cpus_10.branchPred.condPredicted      4143929                       # Number of conditional branches predicted
system.switch_cpus_10.branchPred.indirectHits      1739636                       # Number of indirect target hits.
system.switch_cpus_10.branchPred.indirectLookups      4302641                       # Number of indirect predictor lookups.
system.switch_cpus_10.branchPred.indirectMisses      2563005                       # Number of indirect misses.
system.switch_cpus_10.branchPred.lookups      4935846                       # Number of BP lookups
system.switch_cpus_10.branchPred.usedRAS       341941                       # Number of times the RAS was used to get a target.
system.switch_cpus_10.branchPredindirectMispredicted       244957                       # Number of mispredicted indirect branches.
system.switch_cpus_10.cc_regfile_reads       22593421                       # number of cc regfile reads
system.switch_cpus_10.cc_regfile_writes      17810634                       # number of cc regfile writes
system.switch_cpus_10.commit.amos                   0                       # Number of atomic instructions committed
system.switch_cpus_10.commit.branchMispredicts       314054                       # The number of times a branch was mispredicted
system.switch_cpus_10.commit.branches         3237851                       # Number of branches committed
system.switch_cpus_10.commit.bw_lim_events      3388499                       # number cycles where commit BW limit reached
system.switch_cpus_10.commit.commitNonSpecStalls         3832                       # The number of times commit has been forced to stall to communicate backwards
system.switch_cpus_10.commit.commitSquashedInsts      8898158                       # The number of squashed insts skipped by commit
system.switch_cpus_10.commit.committedInsts     38240166                       # Number of instructions committed
system.switch_cpus_10.commit.committedOps     58047978                       # Number of ops (including micro ops) committed
system.switch_cpus_10.commit.committed_per_cycle::samples     54357997                       # Number of insts commited each cycle
system.switch_cpus_10.commit.committed_per_cycle::mean     1.067883                       # Number of insts commited each cycle
system.switch_cpus_10.commit.committed_per_cycle::stdev     2.195967                       # Number of insts commited each cycle
system.switch_cpus_10.commit.committed_per_cycle::underflows            0      0.00%      0.00% # Number of insts commited each cycle
system.switch_cpus_10.commit.committed_per_cycle::0     37976933     69.86%     69.86% # Number of insts commited each cycle
system.switch_cpus_10.commit.committed_per_cycle::1      5623243     10.34%     80.21% # Number of insts commited each cycle
system.switch_cpus_10.commit.committed_per_cycle::2      2348704      4.32%     84.53% # Number of insts commited each cycle
system.switch_cpus_10.commit.committed_per_cycle::3      2096838      3.86%     88.39% # Number of insts commited each cycle
system.switch_cpus_10.commit.committed_per_cycle::4      1309910      2.41%     90.80% # Number of insts commited each cycle
system.switch_cpus_10.commit.committed_per_cycle::5      1014221      1.87%     92.66% # Number of insts commited each cycle
system.switch_cpus_10.commit.committed_per_cycle::6       179467      0.33%     92.99% # Number of insts commited each cycle
system.switch_cpus_10.commit.committed_per_cycle::7       420182      0.77%     93.77% # Number of insts commited each cycle
system.switch_cpus_10.commit.committed_per_cycle::8      3388499      6.23%    100.00% # Number of insts commited each cycle
system.switch_cpus_10.commit.committed_per_cycle::overflows            0      0.00%    100.00% # Number of insts commited each cycle
system.switch_cpus_10.commit.committed_per_cycle::min_value            0                       # Number of insts commited each cycle
system.switch_cpus_10.commit.committed_per_cycle::max_value            8                       # Number of insts commited each cycle
system.switch_cpus_10.commit.committed_per_cycle::total     54357997                       # Number of insts commited each cycle
system.switch_cpus_10.commit.fp_insts        23254964                       # Number of committed floating point instructions.
system.switch_cpus_10.commit.function_calls       235881                       # Number of function calls committed.
system.switch_cpus_10.commit.int_insts       43715145                       # Number of committed integer instructions.
system.switch_cpus_10.commit.loads           13360014                       # Number of loads committed
system.switch_cpus_10.commit.membars             2184                       # Number of memory barriers committed
system.switch_cpus_10.commit.op_class_0::No_OpClass       112433      0.19%      0.19% # Class of committed instruction
system.switch_cpus_10.commit.op_class_0::IntAlu     26244477     45.21%     45.41% # Class of committed instruction
system.switch_cpus_10.commit.op_class_0::IntMult       734108      1.26%     46.67% # Class of committed instruction
system.switch_cpus_10.commit.op_class_0::IntDiv         9587      0.02%     46.69% # Class of committed instruction
system.switch_cpus_10.commit.op_class_0::FloatAdd         5559      0.01%     46.70% # Class of committed instruction
system.switch_cpus_10.commit.op_class_0::FloatCmp            0      0.00%     46.70% # Class of committed instruction
system.switch_cpus_10.commit.op_class_0::FloatCvt          112      0.00%     46.70% # Class of committed instruction
system.switch_cpus_10.commit.op_class_0::FloatMult            0      0.00%     46.70% # Class of committed instruction
system.switch_cpus_10.commit.op_class_0::FloatMultAcc            0      0.00%     46.70% # Class of committed instruction
system.switch_cpus_10.commit.op_class_0::FloatDiv            0      0.00%     46.70% # Class of committed instruction
system.switch_cpus_10.commit.op_class_0::FloatMisc            0      0.00%     46.70% # Class of committed instruction
system.switch_cpus_10.commit.op_class_0::FloatSqrt            0      0.00%     46.70% # Class of committed instruction
system.switch_cpus_10.commit.op_class_0::SimdAdd        17302      0.03%     46.73% # Class of committed instruction
system.switch_cpus_10.commit.op_class_0::SimdAddAcc            0      0.00%     46.73% # Class of committed instruction
system.switch_cpus_10.commit.op_class_0::SimdAlu       179912      0.31%     47.04% # Class of committed instruction
system.switch_cpus_10.commit.op_class_0::SimdCmp          404      0.00%     47.04% # Class of committed instruction
system.switch_cpus_10.commit.op_class_0::SimdCvt       116360      0.20%     47.24% # Class of committed instruction
system.switch_cpus_10.commit.op_class_0::SimdMisc      1214903      2.09%     49.33% # Class of committed instruction
system.switch_cpus_10.commit.op_class_0::SimdMult            0      0.00%     49.33% # Class of committed instruction
system.switch_cpus_10.commit.op_class_0::SimdMultAcc            0      0.00%     49.33% # Class of committed instruction
system.switch_cpus_10.commit.op_class_0::SimdShift         3410      0.01%     49.34% # Class of committed instruction
system.switch_cpus_10.commit.op_class_0::SimdShiftAcc            0      0.00%     49.34% # Class of committed instruction
system.switch_cpus_10.commit.op_class_0::SimdDiv            0      0.00%     49.34% # Class of committed instruction
system.switch_cpus_10.commit.op_class_0::SimdSqrt            0      0.00%     49.34% # Class of committed instruction
system.switch_cpus_10.commit.op_class_0::SimdFloatAdd      2916547      5.02%     54.36% # Class of committed instruction
system.switch_cpus_10.commit.op_class_0::SimdFloatAlu            0      0.00%     54.36% # Class of committed instruction
system.switch_cpus_10.commit.op_class_0::SimdFloatCmp            0      0.00%     54.36% # Class of committed instruction
system.switch_cpus_10.commit.op_class_0::SimdFloatCvt      4739790      8.17%     62.53% # Class of committed instruction
system.switch_cpus_10.commit.op_class_0::SimdFloatDiv      2187210      3.77%     66.29% # Class of committed instruction
system.switch_cpus_10.commit.op_class_0::SimdFloatMisc            0      0.00%     66.29% # Class of committed instruction
system.switch_cpus_10.commit.op_class_0::SimdFloatMult      3280842      5.65%     71.95% # Class of committed instruction
system.switch_cpus_10.commit.op_class_0::SimdFloatMultAcc            0      0.00%     71.95% # Class of committed instruction
system.switch_cpus_10.commit.op_class_0::SimdFloatSqrt       364534      0.63%     72.57% # Class of committed instruction
system.switch_cpus_10.commit.op_class_0::SimdReduceAdd            0      0.00%     72.57% # Class of committed instruction
system.switch_cpus_10.commit.op_class_0::SimdReduceAlu            0      0.00%     72.57% # Class of committed instruction
system.switch_cpus_10.commit.op_class_0::SimdReduceCmp            0      0.00%     72.57% # Class of committed instruction
system.switch_cpus_10.commit.op_class_0::SimdFloatReduceAdd            0      0.00%     72.57% # Class of committed instruction
system.switch_cpus_10.commit.op_class_0::SimdFloatReduceCmp            0      0.00%     72.57% # Class of committed instruction
system.switch_cpus_10.commit.op_class_0::SimdAes            0      0.00%     72.57% # Class of committed instruction
system.switch_cpus_10.commit.op_class_0::SimdAesMix            0      0.00%     72.57% # Class of committed instruction
system.switch_cpus_10.commit.op_class_0::SimdSha1Hash            0      0.00%     72.57% # Class of committed instruction
system.switch_cpus_10.commit.op_class_0::SimdSha1Hash2            0      0.00%     72.57% # Class of committed instruction
system.switch_cpus_10.commit.op_class_0::SimdSha256Hash            0      0.00%     72.57% # Class of committed instruction
system.switch_cpus_10.commit.op_class_0::SimdSha256Hash2            0      0.00%     72.57% # Class of committed instruction
system.switch_cpus_10.commit.op_class_0::SimdShaSigma2            0      0.00%     72.57% # Class of committed instruction
system.switch_cpus_10.commit.op_class_0::SimdShaSigma3            0      0.00%     72.57% # Class of committed instruction
system.switch_cpus_10.commit.op_class_0::SimdPredAlu            0      0.00%     72.57% # Class of committed instruction
system.switch_cpus_10.commit.op_class_0::MemRead      7018424     12.09%     84.66% # Class of committed instruction
system.switch_cpus_10.commit.op_class_0::MemWrite      1051682      1.81%     86.48% # Class of committed instruction
system.switch_cpus_10.commit.op_class_0::FloatMemRead      6341590     10.92%     97.40% # Class of committed instruction
system.switch_cpus_10.commit.op_class_0::FloatMemWrite      1508792      2.60%    100.00% # Class of committed instruction
system.switch_cpus_10.commit.op_class_0::IprAccess            0      0.00%    100.00% # Class of committed instruction
system.switch_cpus_10.commit.op_class_0::InstPrefetch            0      0.00%    100.00% # Class of committed instruction
system.switch_cpus_10.commit.op_class_0::total     58047978                       # Class of committed instruction
system.switch_cpus_10.commit.refs            15920488                       # Number of memory references committed
system.switch_cpus_10.commit.swp_count              0                       # Number of s/w prefetches committed
system.switch_cpus_10.commit.vec_insts              0                       # Number of committed Vector instructions.
system.switch_cpus_10.committedInsts         38240166                       # Number of Instructions Simulated
system.switch_cpus_10.committedOps           58047978                       # Number of Ops (including micro ops) Simulated
system.switch_cpus_10.cpi                    1.466607                       # CPI: Cycles Per Instruction
system.switch_cpus_10.cpi_total              1.466607                       # CPI: Total CPI of All Threads
system.switch_cpus_10.decode.BlockedCycles     36162355                       # Number of cycles decode is blocked
system.switch_cpus_10.decode.DecodedInsts     70577360                       # Number of instructions handled by decode
system.switch_cpus_10.decode.IdleCycles       8758371                       # Number of cycles decode is idle
system.switch_cpus_10.decode.RunCycles        9523990                       # Number of cycles decode is running
system.switch_cpus_10.decode.SquashCycles       325046                       # Number of cycles decode is squashing
system.switch_cpus_10.decode.UnblockCycles       949855                       # Number of cycles decode is unblocking
system.switch_cpus_10.dtb.rdAccesses         14220833                       # TLB accesses on read requests
system.switch_cpus_10.dtb.rdMisses               8564                       # TLB misses on read requests
system.switch_cpus_10.dtb.wrAccesses          3095648                       # TLB accesses on write requests
system.switch_cpus_10.dtb.wrMisses               4114                       # TLB misses on write requests
system.switch_cpus_10.fetch.Branches          4935846                       # Number of branches that fetch encountered
system.switch_cpus_10.fetch.CacheLines        4530418                       # Number of cache lines fetched
system.switch_cpus_10.fetch.Cycles           45553926                       # Number of cycles fetch has run and was not squashing or blocked
system.switch_cpus_10.fetch.IcacheSquashes       133498                       # Number of outstanding Icache misses that were squashed
system.switch_cpus_10.fetch.IcacheWaitRetryStallCycles          333                       # Number of stall cycles due to full MSHR
system.switch_cpus_10.fetch.Insts            45386694                       # Number of instructions fetch has processed
system.switch_cpus_10.fetch.MiscStallCycles          302                       # Number of cycles fetch has spent waiting on interrupts, or bad addresses, or out of MSHRs
system.switch_cpus_10.fetch.PendingTrapStallCycles           11                       # Number of stall cycles due to pending traps
system.switch_cpus_10.fetch.SquashCycles       650092                       # Number of cycles fetch has spent squashing
system.switch_cpus_10.fetch.branchRate       0.088009                       # Number of branch fetches per cycle
system.switch_cpus_10.fetch.icacheStallCycles      9840000                       # Number of cycles fetch is stalled on an Icache miss
system.switch_cpus_10.fetch.predictedBranches      2081577                       # Number of branches that fetch has predicted taken
system.switch_cpus_10.fetch.rate             0.809273                       # Number of inst fetches per cycle
system.switch_cpus_10.fetch.rateDist::samples     55719618                       # Number of instructions fetched each cycle (Total)
system.switch_cpus_10.fetch.rateDist::mean     1.300853                       # Number of instructions fetched each cycle (Total)
system.switch_cpus_10.fetch.rateDist::stdev     2.775457                       # Number of instructions fetched each cycle (Total)
system.switch_cpus_10.fetch.rateDist::underflows            0      0.00%      0.00% # Number of instructions fetched each cycle (Total)
system.switch_cpus_10.fetch.rateDist::0      44290698     79.49%     79.49% # Number of instructions fetched each cycle (Total)
system.switch_cpus_10.fetch.rateDist::1        377685      0.68%     80.17% # Number of instructions fetched each cycle (Total)
system.switch_cpus_10.fetch.rateDist::2        761285      1.37%     81.53% # Number of instructions fetched each cycle (Total)
system.switch_cpus_10.fetch.rateDist::3       1410952      2.53%     84.06% # Number of instructions fetched each cycle (Total)
system.switch_cpus_10.fetch.rateDist::4        512560      0.92%     84.98% # Number of instructions fetched each cycle (Total)
system.switch_cpus_10.fetch.rateDist::5        398641      0.72%     85.70% # Number of instructions fetched each cycle (Total)
system.switch_cpus_10.fetch.rateDist::6        409253      0.73%     86.43% # Number of instructions fetched each cycle (Total)
system.switch_cpus_10.fetch.rateDist::7        617415      1.11%     87.54% # Number of instructions fetched each cycle (Total)
system.switch_cpus_10.fetch.rateDist::8       6941129     12.46%    100.00% # Number of instructions fetched each cycle (Total)
system.switch_cpus_10.fetch.rateDist::overflows            0      0.00%    100.00% # Number of instructions fetched each cycle (Total)
system.switch_cpus_10.fetch.rateDist::min_value            0                       # Number of instructions fetched each cycle (Total)
system.switch_cpus_10.fetch.rateDist::max_value            8                       # Number of instructions fetched each cycle (Total)
system.switch_cpus_10.fetch.rateDist::total     55719618                       # Number of instructions fetched each cycle (Total)
system.switch_cpus_10.fp_regfile_reads       39969621                       # number of floating regfile reads
system.switch_cpus_10.fp_regfile_writes      21540124                       # number of floating regfile writes
system.switch_cpus_10.idleCycles               363696                       # Total number of cycles that the CPU has spent unscheduled due to idling
system.switch_cpus_10.iew.branchMispredicts       412189                       # Number of branch mispredicts detected at execute
system.switch_cpus_10.iew.exec_branches       3673182                       # Number of branches executed
system.switch_cpus_10.iew.exec_nop                  0                       # number of nop insts executed
system.switch_cpus_10.iew.exec_rate          1.136183                       # Inst execution rate
system.switch_cpus_10.iew.exec_refs          17310831                       # number of memory reference insts executed
system.switch_cpus_10.iew.exec_stores         3094806                       # Number of stores executed
system.switch_cpus_10.iew.exec_swp                  0                       # number of swp insts executed
system.switch_cpus_10.iew.iewBlockCycles      1281406                       # Number of cycles IEW is blocking
system.switch_cpus_10.iew.iewDispLoadInsts     14758157                       # Number of dispatched load instructions
system.switch_cpus_10.iew.iewDispNonSpecInsts         3600                       # Number of dispatched non-speculative instructions
system.switch_cpus_10.iew.iewDispSquashedInsts       153054                       # Number of squashed instructions skipped by dispatch
system.switch_cpus_10.iew.iewDispStoreInsts      3430210                       # Number of dispatched store instructions
system.switch_cpus_10.iew.iewDispatchedInsts     67225986                       # Number of instructions dispatched to IQ
system.switch_cpus_10.iew.iewExecLoadInsts     14216025                       # Number of load instructions executed
system.switch_cpus_10.iew.iewExecSquashedInsts       647626                       # Number of squashed instructions skipped in execute
system.switch_cpus_10.iew.iewExecutedInsts     63720893                       # Number of executed instructions
system.switch_cpus_10.iew.iewIQFullEvents         5731                       # Number of times the IQ has become full, causing a stall
system.switch_cpus_10.iew.iewIdleCycles             0                       # Number of cycles IEW is idle
system.switch_cpus_10.iew.iewLSQFullEvents      9300858                       # Number of times the LSQ has become full, causing a stall
system.switch_cpus_10.iew.iewSquashCycles       325046                       # Number of cycles IEW is squashing
system.switch_cpus_10.iew.iewUnblockCycles      9308432                       # Number of cycles IEW is unblocking
system.switch_cpus_10.iew.lsq.thread0.blockedLoads            0                       # Number of blocked loads due to partial load-store forwarding
system.switch_cpus_10.iew.lsq.thread0.cacheBlocked          293                       # Number of times an access to memory failed due to the cache being blocked
system.switch_cpus_10.iew.lsq.thread0.forwLoads       928852                       # Number of loads that had data forwarded from stores
system.switch_cpus_10.iew.lsq.thread0.ignoredResponses         3094                       # Number of memory responses ignored because the instruction is squashed
system.switch_cpus_10.iew.lsq.thread0.invAddrLoads            0                       # Number of loads ignored due to an invalid address
system.switch_cpus_10.iew.lsq.thread0.invAddrSwpfs            0                       # Number of software prefetches ignored due to an invalid address
system.switch_cpus_10.iew.lsq.thread0.memOrderViolation         1444                       # Number of memory ordering violations
system.switch_cpus_10.iew.lsq.thread0.rescheduledLoads          722                       # Number of loads that were rescheduled
system.switch_cpus_10.iew.lsq.thread0.squashedLoads      1398143                       # Number of loads squashed
system.switch_cpus_10.iew.lsq.thread0.squashedStores       869736                       # Number of stores squashed
system.switch_cpus_10.iew.memOrderViolationEvents         1444                       # Number of memory order violations
system.switch_cpus_10.iew.predictedNotTakenIncorrect       358484                       # Number of branches that were predicted not taken incorrectly
system.switch_cpus_10.iew.predictedTakenIncorrect        53705                       # Number of branches that were predicted taken incorrectly
system.switch_cpus_10.iew.wb_consumers       89222782                       # num instructions consuming a value
system.switch_cpus_10.iew.wb_count           63295611                       # cumulative count of insts written-back
system.switch_cpus_10.iew.wb_fanout          0.584907                       # average fanout of values written-back
system.switch_cpus_10.iew.wb_producers       52187073                       # num instructions producing a value
system.switch_cpus_10.iew.wb_rate            1.128600                       # insts written-back per cycle
system.switch_cpus_10.iew.wb_sent            63453673                       # cumulative count of insts sent to commit
system.switch_cpus_10.int_regfile_reads      79899357                       # number of integer regfile reads
system.switch_cpus_10.int_regfile_writes     35299487                       # number of integer regfile writes
system.switch_cpus_10.ipc                    0.681846                       # IPC: Instructions Per Cycle
system.switch_cpus_10.ipc_total              0.681846                       # IPC: Total IPC of All Threads
system.switch_cpus_10.iq.FU_type_0::No_OpClass       297475      0.46%      0.46% # Type of FU issued
system.switch_cpus_10.iq.FU_type_0::IntAlu     30720259     47.73%     48.19% # Type of FU issued
system.switch_cpus_10.iq.FU_type_0::IntMult       739325      1.15%     49.34% # Type of FU issued
system.switch_cpus_10.iq.FU_type_0::IntDiv        10119      0.02%     49.35% # Type of FU issued
system.switch_cpus_10.iq.FU_type_0::FloatAdd         8839      0.01%     49.37% # Type of FU issued
system.switch_cpus_10.iq.FU_type_0::FloatCmp            0      0.00%     49.37% # Type of FU issued
system.switch_cpus_10.iq.FU_type_0::FloatCvt          342      0.00%     49.37% # Type of FU issued
system.switch_cpus_10.iq.FU_type_0::FloatMult            0      0.00%     49.37% # Type of FU issued
system.switch_cpus_10.iq.FU_type_0::FloatMultAcc            0      0.00%     49.37% # Type of FU issued
system.switch_cpus_10.iq.FU_type_0::FloatDiv            0      0.00%     49.37% # Type of FU issued
system.switch_cpus_10.iq.FU_type_0::FloatMisc            0      0.00%     49.37% # Type of FU issued
system.switch_cpus_10.iq.FU_type_0::FloatSqrt            0      0.00%     49.37% # Type of FU issued
system.switch_cpus_10.iq.FU_type_0::SimdAdd        18923      0.03%     49.40% # Type of FU issued
system.switch_cpus_10.iq.FU_type_0::SimdAddAcc            0      0.00%     49.40% # Type of FU issued
system.switch_cpus_10.iq.FU_type_0::SimdAlu       187914      0.29%     49.69% # Type of FU issued
system.switch_cpus_10.iq.FU_type_0::SimdCmp          649      0.00%     49.69% # Type of FU issued
system.switch_cpus_10.iq.FU_type_0::SimdCvt       121985      0.19%     49.88% # Type of FU issued
system.switch_cpus_10.iq.FU_type_0::SimdMisc      1222150      1.90%     51.78% # Type of FU issued
system.switch_cpus_10.iq.FU_type_0::SimdMult            0      0.00%     51.78% # Type of FU issued
system.switch_cpus_10.iq.FU_type_0::SimdMultAcc            0      0.00%     51.78% # Type of FU issued
system.switch_cpus_10.iq.FU_type_0::SimdShift         5492      0.01%     51.79% # Type of FU issued
system.switch_cpus_10.iq.FU_type_0::SimdShiftAcc            0      0.00%     51.79% # Type of FU issued
system.switch_cpus_10.iq.FU_type_0::SimdDiv            0      0.00%     51.79% # Type of FU issued
system.switch_cpus_10.iq.FU_type_0::SimdSqrt            0      0.00%     51.79% # Type of FU issued
system.switch_cpus_10.iq.FU_type_0::SimdFloatAdd      2918785      4.53%     56.32% # Type of FU issued
system.switch_cpus_10.iq.FU_type_0::SimdFloatAlu            0      0.00%     56.32% # Type of FU issued
system.switch_cpus_10.iq.FU_type_0::SimdFloatCmp            0      0.00%     56.32% # Type of FU issued
system.switch_cpus_10.iq.FU_type_0::SimdFloatCvt      4761750      7.40%     63.72% # Type of FU issued
system.switch_cpus_10.iq.FU_type_0::SimdFloatDiv      2195988      3.41%     67.13% # Type of FU issued
system.switch_cpus_10.iq.FU_type_0::SimdFloatMisc            0      0.00%     67.13% # Type of FU issued
system.switch_cpus_10.iq.FU_type_0::SimdFloatMult      3285255      5.10%     72.23% # Type of FU issued
system.switch_cpus_10.iq.FU_type_0::SimdFloatMultAcc            0      0.00%     72.23% # Type of FU issued
system.switch_cpus_10.iq.FU_type_0::SimdFloatSqrt       364534      0.57%     72.80% # Type of FU issued
system.switch_cpus_10.iq.FU_type_0::SimdReduceAdd            0      0.00%     72.80% # Type of FU issued
system.switch_cpus_10.iq.FU_type_0::SimdReduceAlu            0      0.00%     72.80% # Type of FU issued
system.switch_cpus_10.iq.FU_type_0::SimdReduceCmp            0      0.00%     72.80% # Type of FU issued
system.switch_cpus_10.iq.FU_type_0::SimdFloatReduceAdd            0      0.00%     72.80% # Type of FU issued
system.switch_cpus_10.iq.FU_type_0::SimdFloatReduceCmp            0      0.00%     72.80% # Type of FU issued
system.switch_cpus_10.iq.FU_type_0::SimdAes            0      0.00%     72.80% # Type of FU issued
system.switch_cpus_10.iq.FU_type_0::SimdAesMix            0      0.00%     72.80% # Type of FU issued
system.switch_cpus_10.iq.FU_type_0::SimdSha1Hash            0      0.00%     72.80% # Type of FU issued
system.switch_cpus_10.iq.FU_type_0::SimdSha1Hash2            0      0.00%     72.80% # Type of FU issued
system.switch_cpus_10.iq.FU_type_0::SimdSha256Hash            0      0.00%     72.80% # Type of FU issued
system.switch_cpus_10.iq.FU_type_0::SimdSha256Hash2            0      0.00%     72.80% # Type of FU issued
system.switch_cpus_10.iq.FU_type_0::SimdShaSigma2            0      0.00%     72.80% # Type of FU issued
system.switch_cpus_10.iq.FU_type_0::SimdShaSigma3            0      0.00%     72.80% # Type of FU issued
system.switch_cpus_10.iq.FU_type_0::SimdPredAlu            0      0.00%     72.80% # Type of FU issued
system.switch_cpus_10.iq.FU_type_0::MemRead      7746012     12.03%     84.83% # Type of FU issued
system.switch_cpus_10.iq.FU_type_0::MemWrite      1464067      2.27%     87.11% # Type of FU issued
system.switch_cpus_10.iq.FU_type_0::FloatMemRead      6593308     10.24%     97.35% # Type of FU issued
system.switch_cpus_10.iq.FU_type_0::FloatMemWrite      1705348      2.65%    100.00% # Type of FU issued
system.switch_cpus_10.iq.FU_type_0::IprAccess            0      0.00%    100.00% # Type of FU issued
system.switch_cpus_10.iq.FU_type_0::InstPrefetch            0      0.00%    100.00% # Type of FU issued
system.switch_cpus_10.iq.FU_type_0::total     64368519                       # Type of FU issued
system.switch_cpus_10.iq.fp_alu_accesses     24326857                       # Number of floating point alu accesses
system.switch_cpus_10.iq.fp_inst_queue_reads     48109279                       # Number of floating instruction queue reads
system.switch_cpus_10.iq.fp_inst_queue_wakeup_accesses     23694534                       # Number of floating instruction queue wakeup accesses
system.switch_cpus_10.iq.fp_inst_queue_writes     24595024                       # Number of floating instruction queue writes
system.switch_cpus_10.iq.fu_busy_cnt          1177472                       # FU busy when requested
system.switch_cpus_10.iq.fu_busy_rate        0.018293                       # FU busy rate (busy events/executed inst)
system.switch_cpus_10.iq.fu_full::No_OpClass            0      0.00%      0.00% # attempts to use FU when none available
system.switch_cpus_10.iq.fu_full::IntAlu       261083     22.17%     22.17% # attempts to use FU when none available
system.switch_cpus_10.iq.fu_full::IntMult            0      0.00%     22.17% # attempts to use FU when none available
system.switch_cpus_10.iq.fu_full::IntDiv            0      0.00%     22.17% # attempts to use FU when none available
system.switch_cpus_10.iq.fu_full::FloatAdd            0      0.00%     22.17% # attempts to use FU when none available
system.switch_cpus_10.iq.fu_full::FloatCmp            0      0.00%     22.17% # attempts to use FU when none available
system.switch_cpus_10.iq.fu_full::FloatCvt            0      0.00%     22.17% # attempts to use FU when none available
system.switch_cpus_10.iq.fu_full::FloatMult            0      0.00%     22.17% # attempts to use FU when none available
system.switch_cpus_10.iq.fu_full::FloatMultAcc            0      0.00%     22.17% # attempts to use FU when none available
system.switch_cpus_10.iq.fu_full::FloatDiv            0      0.00%     22.17% # attempts to use FU when none available
system.switch_cpus_10.iq.fu_full::FloatMisc            0      0.00%     22.17% # attempts to use FU when none available
system.switch_cpus_10.iq.fu_full::FloatSqrt            0      0.00%     22.17% # attempts to use FU when none available
system.switch_cpus_10.iq.fu_full::SimdAdd            1      0.00%     22.17% # attempts to use FU when none available
system.switch_cpus_10.iq.fu_full::SimdAddAcc            0      0.00%     22.17% # attempts to use FU when none available
system.switch_cpus_10.iq.fu_full::SimdAlu        18419      1.56%     23.74% # attempts to use FU when none available
system.switch_cpus_10.iq.fu_full::SimdCmp            8      0.00%     23.74% # attempts to use FU when none available
system.switch_cpus_10.iq.fu_full::SimdCvt          314      0.03%     23.76% # attempts to use FU when none available
system.switch_cpus_10.iq.fu_full::SimdMisc        51951      4.41%     28.18% # attempts to use FU when none available
system.switch_cpus_10.iq.fu_full::SimdMult            0      0.00%     28.18% # attempts to use FU when none available
system.switch_cpus_10.iq.fu_full::SimdMultAcc            0      0.00%     28.18% # attempts to use FU when none available
system.switch_cpus_10.iq.fu_full::SimdShift            2      0.00%     28.18% # attempts to use FU when none available
system.switch_cpus_10.iq.fu_full::SimdShiftAcc            0      0.00%     28.18% # attempts to use FU when none available
system.switch_cpus_10.iq.fu_full::SimdDiv            0      0.00%     28.18% # attempts to use FU when none available
system.switch_cpus_10.iq.fu_full::SimdSqrt            0      0.00%     28.18% # attempts to use FU when none available
system.switch_cpus_10.iq.fu_full::SimdFloatAdd            0      0.00%     28.18% # attempts to use FU when none available
system.switch_cpus_10.iq.fu_full::SimdFloatAlu            0      0.00%     28.18% # attempts to use FU when none available
system.switch_cpus_10.iq.fu_full::SimdFloatCmp            0      0.00%     28.18% # attempts to use FU when none available
system.switch_cpus_10.iq.fu_full::SimdFloatCvt            0      0.00%     28.18% # attempts to use FU when none available
system.switch_cpus_10.iq.fu_full::SimdFloatDiv            0      0.00%     28.18% # attempts to use FU when none available
system.switch_cpus_10.iq.fu_full::SimdFloatMisc            0      0.00%     28.18% # attempts to use FU when none available
system.switch_cpus_10.iq.fu_full::SimdFloatMult            0      0.00%     28.18% # attempts to use FU when none available
[...]
system.cpu1.l2cache.ReadSharedReq_mshr_miss_rate::.switch_cpus_11.data     0.521028                       # mshr miss rate for ReadSharedReq accesses
system.cpu1.l2cache.ReadSharedReq_mshr_miss_rate::total     0.530470                       # mshr miss rate for ReadSharedReq accesses
system.cpu1.l2cache.ReadSharedReq_avg_mshr_miss_latency::.switch_cpus1.data 69672.428926                       # average ReadSharedReq mshr miss latency
system.cpu1.l2cache.ReadSharedReq_avg_mshr_miss_latency::.switch_cpus_11.data 72991.590821                       # average ReadSharedReq mshr miss latency
system.cpu1.l2cache.ReadSharedReq_avg_mshr_miss_latency::total 72857.780402                       # average ReadSharedReq mshr miss latency
system.cpu1.l2cache.tags.pwrStateResidencyTicks::UNDEFINED 1319058090033                       # Cumulative time (in ticks) in various power states
system.cpu1.l2cache.tags.tagsinuse          72.192406                       # Cycle average of tags in use
system.cpu1.l2cache.tags.total_refs            113176                       # Total number of references to valid blocks.
system.cpu1.l2cache.tags.sampled_refs           30325                       # Sample count of references to valid blocks.
system.cpu1.l2cache.tags.avg_refs            3.732102                       # Average number of references to valid blocks.
system.cpu1.l2cache.tags.warmup_cycle    1293351708033                       # Cycle when the warmup percentage was hit.
system.cpu1.l2cache.tags.occ_blocks::.cpu1.inst     0.003597                       # Average occupied blocks per requestor
system.cpu1.l2cache.tags.occ_blocks::.cpu1.data     0.019488                       # Average occupied blocks per requestor
system.cpu1.l2cache.tags.occ_blocks::.switch_cpus1.inst     0.675182                       # Average occupied blocks per requestor
system.cpu1.l2cache.tags.occ_blocks::.switch_cpus1.data    10.770726                       # Average occupied blocks per requestor
system.cpu1.l2cache.tags.occ_blocks::.switch_cpus_11.inst     0.175234                       # Average occupied blocks per requestor
system.cpu1.l2cache.tags.occ_blocks::.switch_cpus_11.data    60.548179                       # Average occupied blocks per requestor
system.cpu1.l2cache.tags.occ_percent::.cpu1.inst     0.000001                       # Average percentage of cache occupancy
system.cpu1.l2cache.tags.occ_percent::.cpu1.data     0.000005                       # Average percentage of cache occupancy
system.cpu1.l2cache.tags.occ_percent::.switch_cpus1.inst     0.000165                       # Average percentage of cache occupancy
system.cpu1.l2cache.tags.occ_percent::.switch_cpus1.data     0.002630                       # Average percentage of cache occupancy
system.cpu1.l2cache.tags.occ_percent::.switch_cpus_11.inst     0.000043                       # Average percentage of cache occupancy
system.cpu1.l2cache.tags.occ_percent::.switch_cpus_11.data     0.014782                       # Average percentage of cache occupancy
system.cpu1.l2cache.tags.occ_percent::total     0.017625                       # Average percentage of cache occupancy
system.cpu1.l2cache.tags.occ_task_id_blocks::1024         4096                       # Occupied blocks per task id
system.cpu1.l2cache.tags.age_task_id_blocks_1024::0            1                       # Occupied blocks per task id
system.cpu1.l2cache.tags.age_task_id_blocks_1024::1           79                       # Occupied blocks per task id
system.cpu1.l2cache.tags.age_task_id_blocks_1024::2         1112                       # Occupied blocks per task id
system.cpu1.l2cache.tags.age_task_id_blocks_1024::3         2395                       # Occupied blocks per task id
system.cpu1.l2cache.tags.age_task_id_blocks_1024::4          509                       # Occupied blocks per task id
system.cpu1.l2cache.tags.occ_task_id_percent::1024            1                       # Percentage of cache occupancy per task id
system.cpu1.l2cache.tags.tag_accesses         1841237                       # Number of tag accesses
system.cpu1.l2cache.tags.data_accesses        1841237                       # Number of data accesses
system.cpu1.toL2Bus.pwrStateResidencyTicks::UNDEFINED 1319058090033                       # Cumulative time (in ticks) in various power states
system.cpu1.toL2Bus.trans_dist::ReadResp        56866                       # Transaction distribution
system.cpu1.toL2Bus.trans_dist::WritebackDirty          185                       # Transaction distribution
system.cpu1.toL2Bus.trans_dist::CleanEvict        82494                       # Transaction distribution
system.cpu1.toL2Bus.trans_dist::ReadExReq          148                       # Transaction distribution
system.cpu1.toL2Bus.trans_dist::ReadExResp          148                       # Transaction distribution
system.cpu1.toL2Bus.trans_dist::ReadCleanReq          286                       # Transaction distribution
system.cpu1.toL2Bus.trans_dist::ReadSharedReq        56580                       # Transaction distribution
system.cpu1.toL2Bus.pkt_count_system.cpu1.icache.mem_side::system.cpu1.l2cache.cpu_side          572                       # Packet count per connected master and slave (bytes)
system.cpu1.toL2Bus.pkt_count_system.cpu1.dcache.mem_side::system.cpu1.l2cache.cpu_side       169672                       # Packet count per connected master and slave (bytes)
system.cpu1.toL2Bus.pkt_count::total           170244                       # Packet count per connected master and slave (bytes)
system.cpu1.toL2Bus.pkt_size_system.cpu1.icache.mem_side::system.cpu1.l2cache.cpu_side        18304                       # Cumulative packet size per connected master and slave (bytes)
system.cpu1.toL2Bus.pkt_size_system.cpu1.dcache.mem_side::system.cpu1.l2cache.cpu_side      3641920                       # Cumulative packet size per connected master and slave (bytes)
system.cpu1.toL2Bus.pkt_size::total           3660224                       # Cumulative packet size per connected master and slave (bytes)
system.cpu1.toL2Bus.snoops                      26463                       # Total snoops (count)
system.cpu1.toL2Bus.snoopTraffic                  512                       # Total snoop traffic (bytes)
system.cpu1.toL2Bus.snoop_fanout::samples        83477                       # Request fanout histogram
system.cpu1.toL2Bus.snoop_fanout::mean       0.006565                       # Request fanout histogram
system.cpu1.toL2Bus.snoop_fanout::stdev      0.080757                       # Request fanout histogram
system.cpu1.toL2Bus.snoop_fanout::underflows            0      0.00%      0.00% # Request fanout histogram
system.cpu1.toL2Bus.snoop_fanout::0             82929     99.34%     99.34% # Request fanout histogram
system.cpu1.toL2Bus.snoop_fanout::1               548      0.66%    100.00% # Request fanout histogram
system.cpu1.toL2Bus.snoop_fanout::2                 0      0.00%    100.00% # Request fanout histogram
system.cpu1.toL2Bus.snoop_fanout::3                 0      0.00%    100.00% # Request fanout histogram
system.cpu1.toL2Bus.snoop_fanout::4                 0      0.00%    100.00% # Request fanout histogram
system.cpu1.toL2Bus.snoop_fanout::overflows            0      0.00%    100.00% # Request fanout histogram
system.cpu1.toL2Bus.snoop_fanout::min_value            0                       # Request fanout histogram
system.cpu1.toL2Bus.snoop_fanout::max_value            1                       # Request fanout histogram
system.cpu1.toL2Bus.snoop_fanout::total         83477                       # Request fanout histogram
system.cpu1.toL2Bus.reqLayer0.occupancy      47363694                       # Layer occupancy (ticks)
system.cpu1.toL2Bus.reqLayer0.utilization          0.2                       # Layer utilization (%)
system.cpu1.toL2Bus.respLayer1.occupancy     70965477                       # Layer occupancy (ticks)
system.cpu1.toL2Bus.respLayer1.utilization          0.3                       # Layer utilization (%)
system.cpu1.toL2Bus.respLayer0.occupancy       356535                       # Layer occupancy (ticks)
system.cpu1.toL2Bus.respLayer0.utilization          0.0                       # Layer utilization (%)
system.switch_cpus_10.pwrStateResidencyTicks::OFF  25706382417                       # Cumulative time (in ticks) in various power states
system.switch_cpus_10.dtb.walker.pwrStateResidencyTicks::UNDEFINED 1319058090033                       # Cumulative time (in ticks) in various power states
system.switch_cpus_10.itb.walker.pwrStateResidencyTicks::UNDEFINED 1319058090033                       # Cumulative time (in ticks) in various power states
system.switch_cpus_11.pwrStateResidencyTicks::OFF  25706382417                       # Cumulative time (in ticks) in various power states
system.switch_cpus_11.dtb.walker.pwrStateResidencyTicks::UNDEFINED 1319058090033                       # Cumulative time (in ticks) in various power states
system.switch_cpus_11.itb.walker.pwrStateResidencyTicks::UNDEFINED 1319058090033                       # Cumulative time (in ticks) in various power states
system.cpu_voltage_domain.voltage                   1                       # Voltage in Volts
system.switch_cpus1.numPwrStateTransitions            1                       # Number of power state transitions
system.switch_cpus1.pwrStateResidencyTicks::UNDEFINED 1293351707616                       # Cumulative time (in ticks) in various power states
system.switch_cpus1.pwrStateResidencyTicks::OFF  25706382417                       # Cumulative time (in ticks) in various power states
system.switch_cpus1.dtb.walker.pwrStateResidencyTicks::UNDEFINED 1319058090033                       # Cumulative time (in ticks) in various power states
system.switch_cpus1.itb.walker.pwrStateResidencyTicks::UNDEFINED 1319058090033                       # Cumulative time (in ticks) in various power states
system.mem_ctrls.pwrStateResidencyTicks::UNDEFINED 1319058090033                       # Cumulative time (in ticks) in various power states
system.mem_ctrls.bytes_read::.cpu0.inst            64                       # Number of bytes read from this memory
system.mem_ctrls.bytes_read::.cpu1.inst            64                       # Number of bytes read from this memory
system.mem_ctrls.bytes_read::.cpu1.data            64                       # Number of bytes read from this memory
system.mem_ctrls.bytes_read::.switch_cpus0.inst        78144                       # Number of bytes read from this memory
system.mem_ctrls.bytes_read::.switch_cpus0.data       280384                       # Number of bytes read from this memory
system.mem_ctrls.bytes_read::.switch_cpus1.inst        12672                       # Number of bytes read from this memory
system.mem_ctrls.bytes_read::.switch_cpus1.data        78784                       # Number of bytes read from this memory
system.mem_ctrls.bytes_read::.switch_cpus_10.inst       311616                       # Number of bytes read from this memory
system.mem_ctrls.bytes_read::.switch_cpus_10.data     12110144                       # Number of bytes read from this memory
system.mem_ctrls.bytes_read::.switch_cpus_11.inst         5568                       # Number of bytes read from this memory
system.mem_ctrls.bytes_read::.switch_cpus_11.data      1842304                       # Number of bytes read from this memory
system.mem_ctrls.bytes_read::total           14719808                       # Number of bytes read from this memory
system.mem_ctrls.bytes_inst_read::.cpu0.inst           64                       # Number of instructions bytes read from this memory
system.mem_ctrls.bytes_inst_read::.cpu1.inst           64                       # Number of instructions bytes read from this memory
system.mem_ctrls.bytes_inst_read::.switch_cpus0.inst        78144                       # Number of instructions bytes read from this memory
system.mem_ctrls.bytes_inst_read::.switch_cpus1.inst        12672                       # Number of instructions bytes read from this memory
system.mem_ctrls.bytes_inst_read::.switch_cpus_10.inst       311616                       # Number of instructions bytes read from this memory
system.mem_ctrls.bytes_inst_read::.switch_cpus_11.inst         5568                       # Number of instructions bytes read from this memory
system.mem_ctrls.bytes_inst_read::total        408128                       # Number of instructions bytes read from this memory
system.mem_ctrls.bytes_written::.switch_cpus0.data        48640                       # Number of bytes written to this memory
system.mem_ctrls.bytes_written::.switch_cpus1.data           64                       # Number of bytes written to this memory
system.mem_ctrls.bytes_written::.switch_cpus_10.data      9914752                       # Number of bytes written to this memory
system.mem_ctrls.bytes_written::total         9963456                       # Number of bytes written to this memory
system.mem_ctrls.num_reads::.cpu0.inst              1                       # Number of read requests responded to by this memory
system.mem_ctrls.num_reads::.cpu1.inst              1                       # Number of read requests responded to by this memory
system.mem_ctrls.num_reads::.cpu1.data              1                       # Number of read requests responded to by this memory
system.mem_ctrls.num_reads::.switch_cpus0.inst         1221                       # Number of read requests responded to by this memory
system.mem_ctrls.num_reads::.switch_cpus0.data         4381                       # Number of read requests responded to by this memory
system.mem_ctrls.num_reads::.switch_cpus1.inst          198                       # Number of read requests responded to by this memory
system.mem_ctrls.num_reads::.switch_cpus1.data         1231                       # Number of read requests responded to by this memory
system.mem_ctrls.num_reads::.switch_cpus_10.inst         4869                       # Number of read requests responded to by this memory
system.mem_ctrls.num_reads::.switch_cpus_10.data       189221                       # Number of read requests responded to by this memory
system.mem_ctrls.num_reads::.switch_cpus_11.inst           87                       # Number of read requests responded to by this memory
system.mem_ctrls.num_reads::.switch_cpus_11.data        28786                       # Number of read requests responded to by this memory
system.mem_ctrls.num_reads::total              229997                       # Number of read requests responded to by this memory
system.mem_ctrls.num_writes::.switch_cpus0.data          760                       # Number of write requests responded to by this memory
system.mem_ctrls.num_writes::.switch_cpus1.data            1                       # Number of write requests responded to by this memory
system.mem_ctrls.num_writes::.switch_cpus_10.data       154918                       # Number of write requests responded to by this memory
system.mem_ctrls.num_writes::total             155679                       # Number of write requests responded to by this memory
system.mem_ctrls.bw_read::.cpu0.inst             2490                       # Total read bandwidth from this memory (bytes/s)
system.mem_ctrls.bw_read::.cpu1.inst             2490                       # Total read bandwidth from this memory (bytes/s)
system.mem_ctrls.bw_read::.cpu1.data             2490                       # Total read bandwidth from this memory (bytes/s)
system.mem_ctrls.bw_read::.switch_cpus0.inst      3039868                       # Total read bandwidth from this memory (bytes/s)
system.mem_ctrls.bw_read::.switch_cpus0.data     10907175                       # Total read bandwidth from this memory (bytes/s)
system.mem_ctrls.bw_read::.switch_cpus1.inst       492952                       # Total read bandwidth from this memory (bytes/s)
system.mem_ctrls.bw_read::.switch_cpus1.data      3064764                       # Total read bandwidth from this memory (bytes/s)
system.mem_ctrls.bw_read::.switch_cpus_10.inst     12122126                       # Total read bandwidth from this memory (bytes/s)
system.mem_ctrls.bw_read::.switch_cpus_10.data    471094836                       # Total read bandwidth from this memory (bytes/s)
system.mem_ctrls.bw_read::.switch_cpus_11.inst       216600                       # Total read bandwidth from this memory (bytes/s)
system.mem_ctrls.bw_read::.switch_cpus_11.data     71667182                       # Total read bandwidth from this memory (bytes/s)
system.mem_ctrls.bw_read::total             572612971                       # Total read bandwidth from this memory (bytes/s)
system.mem_ctrls.bw_inst_read::.cpu0.inst         2490                       # Instruction read bandwidth from this memory (bytes/s)
system.mem_ctrls.bw_inst_read::.cpu1.inst         2490                       # Instruction read bandwidth from this memory (bytes/s)
system.mem_ctrls.bw_inst_read::.switch_cpus0.inst      3039868                       # Instruction read bandwidth from this memory (bytes/s)
system.mem_ctrls.bw_inst_read::.switch_cpus1.inst       492952                       # Instruction read bandwidth from this memory (bytes/s)
system.mem_ctrls.bw_inst_read::.switch_cpus_10.inst     12122126                       # Instruction read bandwidth from this memory (bytes/s)
system.mem_ctrls.bw_inst_read::.switch_cpus_11.inst       216600                       # Instruction read bandwidth from this memory (bytes/s)
system.mem_ctrls.bw_inst_read::total         15876524                       # Instruction read bandwidth from this memory (bytes/s)
system.mem_ctrls.bw_write::.switch_cpus0.data      1892137                       # Write bandwidth from this memory (bytes/s)
system.mem_ctrls.bw_write::.switch_cpus1.data         2490                       # Write bandwidth from this memory (bytes/s)
system.mem_ctrls.bw_write::.switch_cpus_10.data    385692232                       # Write bandwidth from this memory (bytes/s)
system.mem_ctrls.bw_write::total            387586858                       # Write bandwidth from this memory (bytes/s)
system.mem_ctrls.bw_total::.cpu0.inst            2490                       # Total bandwidth to/from this memory (bytes/s)
system.mem_ctrls.bw_total::.cpu1.inst            2490                       # Total bandwidth to/from this memory (bytes/s)
system.mem_ctrls.bw_total::.cpu1.data            2490                       # Total bandwidth to/from this memory (bytes/s)
system.mem_ctrls.bw_total::.switch_cpus0.inst      3039868                       # Total bandwidth to/from this memory (bytes/s)
system.mem_ctrls.bw_total::.switch_cpus0.data     12799312                       # Total bandwidth to/from this memory (bytes/s)
system.mem_ctrls.bw_total::.switch_cpus1.inst       492952                       # Total bandwidth to/from this memory (bytes/s)
system.mem_ctrls.bw_total::.switch_cpus1.data      3067254                       # Total bandwidth to/from this memory (bytes/s)
system.mem_ctrls.bw_total::.switch_cpus_10.inst     12122126                       # Total bandwidth to/from this memory (bytes/s)
system.mem_ctrls.bw_total::.switch_cpus_10.data    856787067                       # Total bandwidth to/from this memory (bytes/s)
system.mem_ctrls.bw_total::.switch_cpus_11.inst       216600                       # Total bandwidth to/from this memory (bytes/s)
system.mem_ctrls.bw_total::.switch_cpus_11.data     71667182                       # Total bandwidth to/from this memory (bytes/s)
system.mem_ctrls.bw_total::total            960199829                       # Total bandwidth to/from this memory (bytes/s)
system.cpu_clk_domain.clock                       417                       # Clock period in ticks

---------- End Simulation Statistics   ----------
