
---------- Begin Simulation Statistics ----------
final_tick                               1321688871309                       # Number of ticks from beginning of simulation (restored from checkpoints and never reset)
host_inst_rate                                 147973                       # Simulator instruction rate (inst/s)
host_mem_usage                                4696396                       # Number of bytes of host memory used
host_op_rate                                   258829                       # Simulator op (including micro ops) rate (op/s)
host_seconds                                   676.31                       # Real time elapsed on the host
host_tick_rate                               41899528                       # Simulator tick rate (ticks/s)
sim_freq                                 1000000000000                       # Frequency of simulated ticks
sim_insts                                   100075923                       # Number of instructions simulated
sim_ops                                     175049159                       # Number of ops (including micro ops) simulated
sim_seconds                                  0.028337                       # Number of seconds simulated
sim_ticks                                 28337163693                       # Number of ticks simulated
system.cpu0.committedInsts                          2                       # Number of instructions committed
system.cpu0.committedOps                            4                       # Number of ops (including micro ops) committed
system.cpu0.dcache.prefetcher.num_hwpf_issued       195499                       # number of hwpf issued
system.cpu0.dcache.prefetcher.pfBufferHit        60869                       # number of redundant prefetches already in prefetch queue
system.cpu0.dcache.prefetcher.pfIdentified       283194                       # number of prefetch candidates identified
system.cpu0.dcache.prefetcher.pfInCache             0                       # number of redundant prefetches already in cache/mshr dropped
system.cpu0.dcache.prefetcher.pfRemovedFull            0                       # number of prefetches dropped due to prefetch queue size
system.cpu0.dcache.prefetcher.pfSpanPage        19894                       # number of prefetches that crossed the page
system.cpu0.dtb.rdAccesses                          0                       # TLB accesses on read requests
system.cpu0.dtb.rdMisses                            0                       # TLB misses on read requests
system.cpu0.dtb.wrAccesses                          0                       # TLB accesses on write requests
system.cpu0.dtb.wrMisses                            0                       # TLB misses on write requests
system.cpu0.idle_fraction                           0                       # Percentage of idle cycles
system.cpu0.itb.rdAccesses                          0                       # TLB accesses on read requests
system.cpu0.itb.rdMisses                            0                       # TLB misses on read requests
system.cpu0.itb.wrAccesses                          3                       # TLB accesses on write requests
system.cpu0.itb.wrMisses                            0                       # TLB misses on write requests
system.cpu0.not_idle_fraction                       1                       # Percentage of non-idle cycles
system.cpu0.numCycles                               5                       # number of cpu cycles simulated
system.cpu0.numWorkItemsCompleted                   0                       # number of work items this cpu completed
system.cpu0.numWorkItemsStarted                     0                       # number of work items this cpu started
system.cpu0.num_busy_cycles                         5                       # Number of busy cycles
system.cpu0.num_cc_register_writes                  2                       # number of times the CC registers were written
system.cpu0.num_conditional_control_insts            0                       # number of instructions that are conditional controls
system.cpu0.num_fp_alu_accesses                     0                       # Number of float alu accesses
system.cpu0.num_fp_insts                            0                       # number of float instructions
system.cpu0.num_fp_register_reads                   0                       # number of times the floating registers were read
system.cpu0.num_fp_register_writes                  0                       # number of times the floating registers were written
system.cpu0.num_func_calls                          0                       # number of times a function call or return occured
system.cpu0.num_idle_cycles                         0                       # Number of idle cycles
system.cpu0.num_int_alu_accesses                    4                       # Number of integer alu accesses
system.cpu0.num_int_insts                           4                       # number of integer instructions
system.cpu0.num_int_register_reads                  6                       # number of times the integer registers were read
system.cpu0.num_int_register_writes                 4                       # number of times the integer registers were written
system.cpu0.num_load_insts                          0                       # Number of load instructions
system.cpu0.num_mem_refs                            0                       # number of memory refs
system.cpu0.num_store_insts                         0                       # Number of store instructions
system.cpu0.num_vec_alu_accesses                    0                       # Number of vector alu accesses
system.cpu0.num_vec_insts                           0                       # number of vector instructions
system.cpu0.num_vec_register_reads                  0                       # number of times the vector registers were read
system.cpu0.num_vec_register_writes                 0                       # number of times the vector registers were written
system.cpu0.op_class::No_OpClass                    0      0.00%      0.00% # Class of executed instruction
system.cpu0.op_class::IntAlu                        4    100.00%    100.00% # Class of executed instruction
system.cpu0.op_class::IntMult                       0      0.00%    100.00% # Class of executed instruction
system.cpu0.op_class::IntDiv                        0      0.00%    100.00% # Class of executed instruction
system.cpu0.op_class::FloatAdd                      0      0.00%    100.00% # Class of executed instruction
system.cpu0.op_class::FloatCmp                      0      0.00%    100.00% # Class of executed instruction
system.cpu0.op_class::FloatCvt                      0      0.00%    100.00% # Class of executed instruction
system.cpu0.op_class::FloatMult                     0      0.00%    100.00% # Class of executed instruction
system.cpu0.op_class::FloatMultAcc                  0      0.00%    100.00% # Class of executed instruction
system.cpu0.op_class::FloatDiv                      0      0.00%    100.00% # Class of executed instruction
system.cpu0.op_class::FloatMisc                     0      0.00%    100.00% # Class of executed instruction
system.cpu0.op_class::FloatSqrt                     0      0.00%    100.00% # Class of executed instruction
system.cpu0.op_class::SimdAdd                       0      0.00%    100.00% # Class of executed instruction
system.cpu0.op_class::SimdAddAcc                    0      0.00%    100.00% # Class of executed instruction
system.cpu0.op_class::SimdAlu                       0      0.00%    100.00% # Class of executed instruction
system.cpu0.op_class::SimdCmp                       0      0.00%    100.00% # Class of executed instruction
system.cpu0.op_class::SimdCvt                       0      0.00%    100.00% # Class of executed instruction
system.cpu0.op_class::SimdMisc                      0      0.00%    100.00% # Class of executed instruction
system.cpu0.op_class::SimdMult                      0      0.00%    100.00% # Class of executed instruction
system.cpu0.op_class::SimdMultAcc                   0      0.00%    100.00% # Class of executed instruction
system.cpu0.op_class::SimdShift                     0      0.00%    100.00% # Class of executed instruction
system.cpu0.op_class::SimdShiftAcc                  0      0.00%    100.00% # Class of executed instruction
system.cpu0.op_class::SimdDiv                       0      0.00%    100.00% # Class of executed instruction
system.cpu0.op_class::SimdSqrt                      0      0.00%    100.00% # Class of executed instruction
system.cpu0.op_class::SimdFloatAdd                  0      0.00%    100.00% # Class of executed instruction
system.cpu0.op_class::SimdFloatAlu                  0      0.00%    100.00% # Class of executed instruction
system.cpu0.op_class::SimdFloatCmp                  0      0.00%    100.00% # Class of executed instruction
system.cpu0.op_class::SimdFloatCvt                  0      0.00%    100.00% # Class of executed instruction
system.cpu0.op_class::SimdFloatDiv                  0      0.00%    100.00% # Class of executed instruction
system.cpu0.op_class::SimdFloatMisc                 0      0.00%    100.00% # Class of executed instruction
system.cpu0.op_class::SimdFloatMult                 0      0.00%    100.00% # Class of executed instruction
system.cpu0.op_class::SimdFloatMultAcc              0      0.00%    100.00% # Class of executed instruction
system.cpu0.op_class::SimdFloatSqrt                 0      0.00%    100.00% # Class of executed instruction
system.cpu0.op_class::SimdReduceAdd                 0      0.00%    100.00% # Class of executed instruction
system.cpu0.op_class::SimdReduceAlu                 0      0.00%    100.00% # Class of executed instruction
system.cpu0.op_class::SimdReduceCmp                 0      0.00%    100.00% # Class of executed instruction
system.cpu0.op_class::SimdFloatReduceAdd            0      0.00%    100.00% # Class of executed instruction
system.cpu0.op_class::SimdFloatReduceCmp            0      0.00%    100.00% # Class of executed instruction
system.cpu0.op_class::SimdAes                       0      0.00%    100.00% # Class of executed instruction
system.cpu0.op_class::SimdAesMix                    0      0.00%    100.00% # Class of executed instruction
system.cpu0.op_class::SimdSha1Hash                  0      0.00%    100.00% # Class of executed instruction
system.cpu0.op_class::SimdSha1Hash2                 0      0.00%    100.00% # Class of executed instruction
system.cpu0.op_class::SimdSha256Hash                0      0.00%    100.00% # Class of executed instruction
system.cpu0.op_class::SimdSha256Hash2               0      0.00%    100.00% # Class of executed instruction
system.cpu0.op_class::SimdShaSigma2                 0      0.00%    100.00% # Class of executed instruction
system.cpu0.op_class::SimdShaSigma3                 0      0.00%    100.00% # Class of executed instruction
system.cpu0.op_class::SimdPredAlu                   0      0.00%    100.00% # Class of executed instruction
system.cpu0.op_class::MemRead                       0      0.00%    100.00% # Class of executed instruction
system.cpu0.op_class::MemWrite                      0      0.00%    100.00% # Class of executed instruction
system.cpu0.op_class::FloatMemRead                  0      0.00%    100.00% # Class of executed instruction
system.cpu0.op_class::FloatMemWrite                 0      0.00%    100.00% # Class of executed instruction
system.cpu0.op_class::IprAccess                     0      0.00%    100.00% # Class of executed instruction
system.cpu0.op_class::InstPrefetch                  0      0.00%    100.00% # Class of executed instruction
system.cpu0.op_class::total                         4                       # Class of executed instruction
system.cpu0.toL2Bus.snoop_filter.hit_multi_requests          239                       # Number of requests hitting in the snoop filter with multiple (>1) holders of the requested data.
system.cpu0.toL2Bus.snoop_filter.hit_multi_snoops            4                       # Number of snoops hitting in the snoop filter with multiple (>1) holders of the requested data.
system.cpu0.toL2Bus.snoop_filter.hit_single_requests       394487                       # Number of requests hitting in the snoop filter with a single holder of the requested data.
system.cpu0.toL2Bus.snoop_filter.hit_single_snoops         2016                       # Number of snoops hitting in the snoop filter with a single holder of the requested data.
system.cpu0.toL2Bus.snoop_filter.tot_requests       789135                       # Total number of requests made to the snoop filter.
system.cpu0.toL2Bus.snoop_filter.tot_snoops         2020                       # Total number of snoops made to the snoop filter.
system.cpu0.toL3Bus.snoop_filter.hit_multi_requests            0                       # Number of requests hitting in the snoop filter with multiple (>1) holders of the requested data.
system.cpu0.toL3Bus.snoop_filter.hit_multi_snoops            0                       # Number of snoops hitting in the snoop filter with multiple (>1) holders of the requested data.
system.cpu0.toL3Bus.snoop_filter.hit_single_requests       282483                       # Number of requests hitting in the snoop filter with a single holder of the requested data.
system.cpu0.toL3Bus.snoop_filter.hit_single_snoops          524                       # Number of snoops hitting in the snoop filter with a single holder of the requested data.
system.cpu0.toL3Bus.snoop_filter.tot_requests       569577                       # Total number of requests made to the snoop filter.
system.cpu0.toL3Bus.snoop_filter.tot_snoops          524                       # Total number of snoops made to the snoop filter.
system.cpu0.workload.numSyscalls                  229                       # Number of system calls
system.cpu1.Branches                                1                       # Number of branches fetched
system.cpu1.committedInsts                          1                       # Number of instructions committed
system.cpu1.committedOps                            5                       # Number of ops (including micro ops) committed
system.cpu1.dcache.prefetcher.num_hwpf_issued          164                       # number of hwpf issued
system.cpu1.dcache.prefetcher.pfBufferHit            0                       # number of redundant prefetches already in prefetch queue
system.cpu1.dcache.prefetcher.pfIdentified          164                       # number of prefetch candidates identified
system.cpu1.dcache.prefetcher.pfInCache             0                       # number of redundant prefetches already in cache/mshr dropped
system.cpu1.dcache.prefetcher.pfRemovedFull            0                       # number of prefetches dropped due to prefetch queue size
system.cpu1.dcache.prefetcher.pfSpanPage            4                       # number of prefetches that crossed the page
system.cpu1.dtb.rdAccesses                          0                       # TLB accesses on read requests
system.cpu1.dtb.rdMisses                            0                       # TLB misses on read requests
system.cpu1.dtb.wrAccesses                          1                       # TLB accesses on write requests
system.cpu1.dtb.wrMisses                            0                       # TLB misses on write requests
system.cpu1.idle_fraction                           0                       # Percentage of idle cycles
system.cpu1.itb.rdAccesses                          0                       # TLB accesses on read requests
system.cpu1.itb.rdMisses                            0                       # TLB misses on read requests
system.cpu1.itb.wrAccesses                          2                       # TLB accesses on write requests
system.cpu1.itb.wrMisses                            0                       # TLB misses on write requests
system.cpu1.not_idle_fraction                       1                       # Percentage of non-idle cycles
system.cpu1.numCycles                               6                       # number of cpu cycles simulated
system.cpu1.numWorkItemsCompleted                   0                       # number of work items this cpu completed
system.cpu1.numWorkItemsStarted                     0                       # number of work items this cpu started
system.cpu1.num_busy_cycles                         6                       # Number of busy cycles
system.cpu1.num_conditional_control_insts            0                       # number of instructions that are conditional controls
system.cpu1.num_fp_alu_accesses                     0                       # Number of float alu accesses
system.cpu1.num_fp_insts                            0                       # number of float instructions
system.cpu1.num_fp_register_reads                   0                       # number of times the floating registers were read
system.cpu1.num_fp_register_writes                  0                       # number of times the floating registers were written
system.cpu1.num_func_calls                          1                       # number of times a function call or return occured
system.cpu1.num_idle_cycles                         0                       # Number of idle cycles
system.cpu1.num_int_alu_accesses                    5                       # Number of integer alu accesses
system.cpu1.num_int_insts                           5                       # number of integer instructions
system.cpu1.num_int_register_reads                  9                       # number of times the integer registers were read
system.cpu1.num_int_register_writes                 3                       # number of times the integer registers were written
system.cpu1.num_load_insts                          0                       # Number of load instructions
system.cpu1.num_mem_refs                            1                       # number of memory refs
system.cpu1.num_store_insts                         1                       # Number of store instructions
system.cpu1.num_vec_alu_accesses                    0                       # Number of vector alu accesses
system.cpu1.num_vec_insts                           0                       # number of vector instructions
system.cpu1.num_vec_register_reads                  0                       # number of times the vector registers were read
system.cpu1.num_vec_register_writes                 0                       # number of times the vector registers were written
system.cpu1.op_class::No_OpClass                    0      0.00%      0.00% # Class of executed instruction
system.cpu1.op_class::IntAlu                        4     80.00%     80.00% # Class of executed instruction
system.cpu1.op_class::IntMult                       0      0.00%     80.00% # Class of executed instruction
system.cpu1.op_class::IntDiv                        0      0.00%     80.00% # Class of executed instruction
system.cpu1.op_class::FloatAdd                      0      0.00%     80.00% # Class of executed instruction
system.cpu1.op_class::FloatCmp                      0      0.00%     80.00% # Class of executed instruction
system.cpu1.op_class::FloatCvt                      0      0.00%     80.00% # Class of executed instruction
system.cpu1.op_class::FloatMult                     0      0.00%     80.00% # Class of executed instruction
system.cpu1.op_class::FloatMultAcc                  0      0.00%     80.00% # Class of executed instruction
system.cpu1.op_class::FloatDiv                      0      0.00%     80.00% # Class of executed instruction
system.cpu1.op_class::FloatMisc                     0      0.00%     80.00% # Class of executed instruction
system.cpu1.op_class::FloatSqrt                     0      0.00%     80.00% # Class of executed instruction
system.cpu1.op_class::SimdAdd                       0      0.00%     80.00% # Class of executed instruction
system.cpu1.op_class::SimdAddAcc                    0      0.00%     80.00% # Class of executed instruction
system.cpu1.op_class::SimdAlu                       0      0.00%     80.00% # Class of executed instruction
system.cpu1.op_class::SimdCmp                       0      0.00%     80.00% # Class of executed instruction
system.cpu1.op_class::SimdCvt                       0      0.00%     80.00% # Class of executed instruction
system.cpu1.op_class::SimdMisc                      0      0.00%     80.00% # Class of executed instruction
system.cpu1.op_class::SimdMult                      0      0.00%     80.00% # Class of executed instruction
system.cpu1.op_class::SimdMultAcc                   0      0.00%     80.00% # Class of executed instruction
system.cpu1.op_class::SimdShift                     0      0.00%     80.00% # Class of executed instruction
system.cpu1.op_class::SimdShiftAcc                  0      0.00%     80.00% # Class of executed instruction
system.cpu1.op_class::SimdDiv                       0      0.00%     80.00% # Class of executed instruction
system.cpu1.op_class::SimdSqrt                      0      0.00%     80.00% # Class of executed instruction
system.cpu1.op_class::SimdFloatAdd                  0      0.00%     80.00% # Class of executed instruction
system.cpu1.op_class::SimdFloatAlu                  0      0.00%     80.00% # Class of executed instruction
system.cpu1.op_class::SimdFloatCmp                  0      0.00%     80.00% # Class of executed instruction
system.cpu1.op_class::SimdFloatCvt                  0      0.00%     80.00% # Class of executed instruction
system.cpu1.op_class::SimdFloatDiv                  0      0.00%     80.00% # Class of executed instruction
system.cpu1.op_class::SimdFloatMisc                 0      0.00%     80.00% # Class of executed instruction
system.cpu1.op_class::SimdFloatMult                 0      0.00%     80.00% # Class of executed instruction
system.cpu1.op_class::SimdFloatMultAcc              0      0.00%     80.00% # Class of executed instruction
system.cpu1.op_class::SimdFloatSqrt                 0      0.00%     80.00% # Class of executed instruction
system.cpu1.op_class::SimdReduceAdd                 0      0.00%     80.00% # Class of executed instruction
system.cpu1.op_class::SimdReduceAlu                 0      0.00%     80.00% # Class of executed instruction
system.cpu1.op_class::SimdReduceCmp                 0      0.00%     80.00% # Class of executed instruction
system.cpu1.op_class::SimdFloatReduceAdd            0      0.00%     80.00% # Class of executed instruction
system.cpu1.op_class::SimdFloatReduceCmp            0      0.00%     80.00% # Class of executed instruction
system.cpu1.op_class::SimdAes                       0      0.00%     80.00% # Class of executed instruction
system.cpu1.op_class::SimdAesMix                    0      0.00%     80.00% # Class of executed instruction
system.cpu1.op_class::SimdSha1Hash                  0      0.00%     80.00% # Class of executed instruction
system.cpu1.op_class::SimdSha1Hash2                 0      0.00%     80.00% # Class of executed instruction
system.cpu1.op_class::SimdSha256Hash                0      0.00%     80.00% # Class of executed instruction
system.cpu1.op_class::SimdSha256Hash2               0      0.00%     80.00% # Class of executed instruction
system.cpu1.op_class::SimdShaSigma2                 0      0.00%     80.00% # Class of executed instruction
system.cpu1.op_class::SimdShaSigma3                 0      0.00%     80.00% # Class of executed instruction
system.cpu1.op_class::SimdPredAlu                   0      0.00%     80.00% # Class of executed instruction
system.cpu1.op_class::MemRead                       0      0.00%     80.00% # Class of executed instruction
system.cpu1.op_class::MemWrite                      1     20.00%    100.00% # Class of executed instruction
system.cpu1.op_class::FloatMemRead                  0      0.00%    100.00% # Class of executed instruction
system.cpu1.op_class::FloatMemWrite                 0      0.00%    100.00% # Class of executed instruction
system.cpu1.op_class::IprAccess                     0      0.00%    100.00% # Class of executed instruction
system.cpu1.op_class::InstPrefetch                  0      0.00%    100.00% # Class of executed instruction
system.cpu1.op_class::total                         5                       # Class of executed instruction
system.cpu1.toL2Bus.snoop_filter.hit_multi_requests           46                       # Number of requests hitting in the snoop filter with multiple (>1) holders of the requested data.
system.cpu1.toL2Bus.snoop_filter.hit_multi_snoops            0                       # Number of snoops hitting in the snoop filter with multiple (>1) holders of the requested data.
system.cpu1.toL2Bus.snoop_filter.hit_single_requests        54453                       # Number of requests hitting in the snoop filter with a single holder of the requested data.
system.cpu1.toL2Bus.snoop_filter.hit_single_snoops          454                       # Number of snoops hitting in the snoop filter with a single holder of the requested data.
system.cpu1.toL2Bus.snoop_filter.tot_requests       109704                       # Total number of requests made to the snoop filter.
system.cpu1.toL2Bus.snoop_filter.tot_snoops          454                       # Total number of snoops made to the snoop filter.
system.cpu1.toL3Bus.snoop_filter.hit_multi_requests            0                       # Number of requests hitting in the snoop filter with multiple (>1) holders of the requested data.
system.cpu1.toL3Bus.snoop_filter.hit_multi_snoops            0                       # Number of snoops hitting in the snoop filter with multiple (>1) holders of the requested data.
system.cpu1.toL3Bus.snoop_filter.hit_single_requests        24940                       # Number of requests hitting in the snoop filter with a single holder of the requested data.
system.cpu1.toL3Bus.snoop_filter.hit_single_snoops          173                       # Number of snoops hitting in the snoop filter with a single holder of the requested data.
system.cpu1.toL3Bus.snoop_filter.tot_requests        54299                       # Total number of requests made to the snoop filter.
system.cpu1.toL3Bus.snoop_filter.tot_snoops          173                       # Total number of snoops made to the snoop filter.
system.cpu1.workload.numSyscalls                16383                       # Number of system calls
system.membus.snoop_filter.hit_multi_requests            0                       # Number of requests hitting in the snoop filter with multiple (>1) holders of the requested data.
system.membus.snoop_filter.hit_multi_snoops            0                       # Number of snoops hitting in the snoop filter with multiple (>1) holders of the requested data.
system.membus.snoop_filter.hit_single_requests       246325                       # Number of requests hitting in the snoop filter with a single holder of the requested data.
system.membus.snoop_filter.hit_single_snoops            0                       # Number of snoops hitting in the snoop filter with a single holder of the requested data.
system.membus.snoop_filter.tot_requests        554904                       # Total number of requests made to the snoop filter.
system.membus.snoop_filter.tot_snoops               0                       # Total number of snoops made to the snoop filter.
system.switch_cpus0.Branches                   213165                       # Number of branches fetched
system.switch_cpus0.committedInsts             874877                       # Number of instructions committed
system.switch_cpus0.committedOps              1751423                       # Number of ops (including micro ops) committed
system.switch_cpus0.dtb.rdAccesses             234964                       # TLB accesses on read requests
system.switch_cpus0.dtb.rdMisses                 1366                       # TLB misses on read requests
system.switch_cpus0.dtb.wrAccesses              96885                       # TLB accesses on write requests
system.switch_cpus0.dtb.wrMisses                   18                       # TLB misses on write requests
system.switch_cpus0.idle_fraction            0.000000                       # Percentage of idle cycles
system.switch_cpus0.itb.rdAccesses                  0                       # TLB accesses on read requests
system.switch_cpus0.itb.rdMisses                    0                       # TLB misses on read requests
system.switch_cpus0.itb.wrAccesses            1127167                       # TLB accesses on write requests
system.switch_cpus0.itb.wrMisses                  333                       # TLB misses on write requests
system.switch_cpus0.not_idle_fraction        1.000000                       # Percentage of non-idle cycles
system.switch_cpus0.numCycles                 5834608                       # number of cpu cycles simulated
system.switch_cpus0.numWorkItemsCompleted            0                       # number of work items this cpu completed
system.switch_cpus0.numWorkItemsStarted             0                       # number of work items this cpu started
system.switch_cpus0.num_busy_cycles      5834607.484839                       # Number of busy cycles
system.switch_cpus0.num_cc_register_reads      1252075                       # number of times the CC registers were read
system.switch_cpus0.num_cc_register_writes       569960                       # number of times the CC registers were written
system.switch_cpus0.num_conditional_control_insts       144039                       # number of instructions that are conditional controls
system.switch_cpus0.num_fp_alu_accesses         30100                       # Number of float alu accesses
system.switch_cpus0.num_fp_insts                30100                       # number of float instructions
system.switch_cpus0.num_fp_register_reads        47317                       # number of times the floating registers were read
system.switch_cpus0.num_fp_register_writes        24300                       # number of times the floating registers were written
system.switch_cpus0.num_func_calls              44122                       # number of times a function call or return occured
system.switch_cpus0.num_idle_cycles          0.515161                       # Number of idle cycles
system.switch_cpus0.num_int_alu_accesses      1726354                       # Number of integer alu accesses
system.switch_cpus0.num_int_insts             1726354                       # number of integer instructions
system.switch_cpus0.num_int_register_reads      3390231                       # number of times the integer registers were read
system.switch_cpus0.num_int_register_writes      1413797                       # number of times the integer registers were written
system.switch_cpus0.num_load_insts             234741                       # Number of load instructions
system.switch_cpus0.num_mem_refs               331560                       # number of memory refs
system.switch_cpus0.num_store_insts             96819                       # Number of store instructions
system.switch_cpus0.num_vec_alu_accesses            0                       # Number of vector alu accesses
system.switch_cpus0.num_vec_insts                   0                       # number of vector instructions
system.switch_cpus0.num_vec_register_reads            0                       # number of times the vector registers were read
system.switch_cpus0.num_vec_register_writes            0                       # number of times the vector registers were written
system.switch_cpus0.op_class::No_OpClass         6398      0.37%      0.37% # Class of executed instruction
system.switch_cpus0.op_class::IntAlu          1390508     79.39%     79.76% # Class of executed instruction
system.switch_cpus0.op_class::IntMult              39      0.00%     79.76% # Class of executed instruction
system.switch_cpus0.op_class::IntDiv              155      0.01%     79.77% # Class of executed instruction
system.switch_cpus0.op_class::FloatAdd            150      0.01%     79.78% # Class of executed instruction
system.switch_cpus0.op_class::FloatCmp              0      0.00%     79.78% # Class of executed instruction
system.switch_cpus0.op_class::FloatCvt            144      0.01%     79.78% # Class of executed instruction
system.switch_cpus0.op_class::FloatMult             0      0.00%     79.78% # Class of executed instruction
system.switch_cpus0.op_class::FloatMultAcc            0      0.00%     79.78% # Class of executed instruction
system.switch_cpus0.op_class::FloatDiv              0      0.00%     79.78% # Class of executed instruction
system.switch_cpus0.op_class::FloatMisc             0      0.00%     79.78% # Class of executed instruction
system.switch_cpus0.op_class::FloatSqrt             0      0.00%     79.78% # Class of executed instruction
system.switch_cpus0.op_class::SimdAdd              68      0.00%     79.79% # Class of executed instruction
system.switch_cpus0.op_class::SimdAddAcc            0      0.00%     79.79% # Class of executed instruction
system.switch_cpus0.op_class::SimdAlu           12996      0.74%     80.53% # Class of executed instruction
system.switch_cpus0.op_class::SimdCmp               0      0.00%     80.53% # Class of executed instruction
system.switch_cpus0.op_class::SimdCvt            4602      0.26%     80.79% # Class of executed instruction
system.switch_cpus0.op_class::SimdMisc           4779      0.27%     81.06% # Class of executed instruction
system.switch_cpus0.op_class::SimdMult              0      0.00%     81.06% # Class of executed instruction
system.switch_cpus0.op_class::SimdMultAcc            0      0.00%     81.06% # Class of executed instruction
system.switch_cpus0.op_class::SimdShift            72      0.00%     81.07% # Class of executed instruction
system.switch_cpus0.op_class::SimdShiftAcc            0      0.00%     81.07% # Class of executed instruction
system.switch_cpus0.op_class::SimdDiv               0      0.00%     81.07% # Class of executed instruction
system.switch_cpus0.op_class::SimdSqrt              0      0.00%     81.07% # Class of executed instruction
system.switch_cpus0.op_class::SimdFloatAdd            0      0.00%     81.07% # Class of executed instruction
system.switch_cpus0.op_class::SimdFloatAlu            0      0.00%     81.07% # Class of executed instruction
system.switch_cpus0.op_class::SimdFloatCmp            0      0.00%     81.07% # Class of executed instruction
system.switch_cpus0.op_class::SimdFloatCvt           12      0.00%     81.07% # Class of executed instruction
system.switch_cpus0.op_class::SimdFloatDiv            0      0.00%     81.07% # Class of executed instruction
system.switch_cpus0.op_class::SimdFloatMisc            0      0.00%     81.07% # Class of executed instruction
system.switch_cpus0.op_class::SimdFloatMult            0      0.00%     81.07% # Class of executed instruction
system.switch_cpus0.op_class::SimdFloatMultAcc            0      0.00%     81.07% # Class of executed instruction
system.switch_cpus0.op_class::SimdFloatSqrt            0      0.00%     81.07% # Class of executed instruction
system.switch_cpus0.op_class::SimdReduceAdd            0      0.00%     81.07% # Class of executed instruction
system.switch_cpus0.op_class::SimdReduceAlu            0      0.00%     81.07% # Class of executed instruction
system.switch_cpus0.op_class::SimdReduceCmp            0      0.00%     81.07% # Class of executed instruction
system.switch_cpus0.op_class::SimdFloatReduceAdd            0      0.00%     81.07% # Class of executed instruction
system.switch_cpus0.op_class::SimdFloatReduceCmp            0      0.00%     81.07% # Class of executed instruction
system.switch_cpus0.op_class::SimdAes               0      0.00%     81.07% # Class of executed instruction
system.switch_cpus0.op_class::SimdAesMix            0      0.00%     81.07% # Class of executed instruction
system.switch_cpus0.op_class::SimdSha1Hash            0      0.00%     81.07% # Class of executed instruction
system.switch_cpus0.op_class::SimdSha1Hash2            0      0.00%     81.07% # Class of executed instruction
system.switch_cpus0.op_class::SimdSha256Hash            0      0.00%     81.07% # Class of executed instruction
system.switch_cpus0.op_class::SimdSha256Hash2            0      0.00%     81.07% # Class of executed instruction
system.switch_cpus0.op_class::SimdShaSigma2            0      0.00%     81.07% # Class of executed instruction
system.switch_cpus0.op_class::SimdShaSigma3            0      0.00%     81.07% # Class of executed instruction
system.switch_cpus0.op_class::SimdPredAlu            0      0.00%     81.07% # Class of executed instruction
system.switch_cpus0.op_class::MemRead          229047     13.08%     94.15% # Class of executed instruction
system.switch_cpus0.op_class::MemWrite          95487      5.45%     99.60% # Class of executed instruction
system.switch_cpus0.op_class::FloatMemRead         5694      0.33%     99.92% # Class of executed instruction
system.switch_cpus0.op_class::FloatMemWrite         1332      0.08%    100.00% # Class of executed instruction
system.switch_cpus0.op_class::IprAccess             0      0.00%    100.00% # Class of executed instruction
system.switch_cpus0.op_class::InstPrefetch            0      0.00%    100.00% # Class of executed instruction
system.switch_cpus0.op_class::total           1751483                       # Class of executed instruction
system.switch_cpus1.Branches                   224834                       # Number of branches fetched
system.switch_cpus1.committedInsts            1000001                       # Number of instructions committed
system.switch_cpus1.committedOps              2024684                       # Number of ops (including micro ops) committed
system.switch_cpus1.dtb.rdAccesses             291888                       # TLB accesses on read requests
system.switch_cpus1.dtb.rdMisses                   40                       # TLB misses on read requests
system.switch_cpus1.dtb.wrAccesses             213202                       # TLB accesses on write requests
system.switch_cpus1.dtb.wrMisses                    3                       # TLB misses on write requests
system.switch_cpus1.idle_fraction            0.000000                       # Percentage of idle cycles
system.switch_cpus1.itb.rdAccesses                  0                       # TLB accesses on read requests
system.switch_cpus1.itb.rdMisses                    0                       # TLB misses on read requests
system.switch_cpus1.itb.wrAccesses            1267697                       # TLB accesses on write requests
system.switch_cpus1.itb.wrMisses                   27                       # TLB misses on write requests
system.switch_cpus1.not_idle_fraction        1.000000                       # Percentage of non-idle cycles
system.switch_cpus1.numCycles                 5834608                       # number of cpu cycles simulated
system.switch_cpus1.numWorkItemsCompleted            0                       # number of work items this cpu completed
system.switch_cpus1.numWorkItemsStarted             0                       # number of work items this cpu started
system.switch_cpus1.num_busy_cycles      5834607.484839                       # Number of busy cycles
system.switch_cpus1.num_cc_register_reads       839766                       # number of times the CC registers were read
system.switch_cpus1.num_cc_register_writes       449805                       # number of times the CC registers were written
system.switch_cpus1.num_conditional_control_insts       102459                       # number of instructions that are conditional controls
system.switch_cpus1.num_fp_alu_accesses         16406                       # Number of float alu accesses
system.switch_cpus1.num_fp_insts                16406                       # number of float instructions
system.switch_cpus1.num_fp_register_reads        27540                       # number of times the floating registers were read
system.switch_cpus1.num_fp_register_writes        14430                       # number of times the floating registers were written
system.switch_cpus1.num_func_calls             106054                       # number of times a function call or return occured
system.switch_cpus1.num_idle_cycles          0.515161                       # Number of idle cycles
system.switch_cpus1.num_int_alu_accesses      2003876                       # Number of integer alu accesses
system.switch_cpus1.num_int_insts             2003876                       # number of integer instructions
system.switch_cpus1.num_int_register_reads      4247890                       # number of times the integer registers were read
system.switch_cpus1.num_int_register_writes      1572123                       # number of times the integer registers were written
system.switch_cpus1.num_load_insts             291886                       # Number of load instructions
system.switch_cpus1.num_mem_refs               505086                       # number of memory refs
system.switch_cpus1.num_store_insts            213200                       # Number of store instructions
system.switch_cpus1.num_vec_alu_accesses            0                       # Number of vector alu accesses
system.switch_cpus1.num_vec_insts                   0                       # number of vector instructions
system.switch_cpus1.num_vec_register_reads            0                       # number of times the vector registers were read
system.switch_cpus1.num_vec_register_writes            0                       # number of times the vector registers were written
system.switch_cpus1.op_class::No_OpClass         6797      0.34%      0.34% # Class of executed instruction
system.switch_cpus1.op_class::IntAlu          1497763     73.98%     74.31% # Class of executed instruction
system.switch_cpus1.op_class::IntMult             941      0.05%     74.36% # Class of executed instruction
system.switch_cpus1.op_class::IntDiv             2289      0.11%     74.47% # Class of executed instruction
system.switch_cpus1.op_class::FloatAdd            654      0.03%     74.50% # Class of executed instruction
system.switch_cpus1.op_class::FloatCmp              0      0.00%     74.50% # Class of executed instruction
system.switch_cpus1.op_class::FloatCvt              0      0.00%     74.50% # Class of executed instruction
system.switch_cpus1.op_class::FloatMult             0      0.00%     74.50% # Class of executed instruction
system.switch_cpus1.op_class::FloatMultAcc            0      0.00%     74.50% # Class of executed instruction
system.switch_cpus1.op_class::FloatDiv              0      0.00%     74.50% # Class of executed instruction
system.switch_cpus1.op_class::FloatMisc             0      0.00%     74.50% # Class of executed instruction
system.switch_cpus1.op_class::FloatSqrt             0      0.00%     74.50% # Class of executed instruction
system.switch_cpus1.op_class::SimdAdd               0      0.00%     74.50% # Class of executed instruction
system.switch_cpus1.op_class::SimdAddAcc            0      0.00%     74.50% # Class of executed instruction
system.switch_cpus1.op_class::SimdAlu            2624      0.13%     74.63% # Class of executed instruction
system.switch_cpus1.op_class::SimdCmp               0      0.00%     74.63% # Class of executed instruction
system.switch_cpus1.op_class::SimdCvt            2630      0.13%     74.76% # Class of executed instruction
system.switch_cpus1.op_class::SimdMisc           5900      0.29%     75.05% # Class of executed instruction
system.switch_cpus1.op_class::SimdMult              0      0.00%     75.05% # Class of executed instruction
system.switch_cpus1.op_class::SimdMultAcc            0      0.00%     75.05% # Class of executed instruction
system.switch_cpus1.op_class::SimdShift             0      0.00%     75.05% # Class of executed instruction
system.switch_cpus1.op_class::SimdShiftAcc            0      0.00%     75.05% # Class of executed instruction
system.switch_cpus1.op_class::SimdDiv               0      0.00%     75.05% # Class of executed instruction
system.switch_cpus1.op_class::SimdSqrt              0      0.00%     75.05% # Class of executed instruction
system.switch_cpus1.op_class::SimdFloatAdd            0      0.00%     75.05% # Class of executed instruction
system.switch_cpus1.op_class::SimdFloatAlu            0      0.00%     75.05% # Class of executed instruction
system.switch_cpus1.op_class::SimdFloatCmp            0      0.00%     75.05% # Class of executed instruction
system.switch_cpus1.op_class::SimdFloatCvt            0      0.00%     75.05% # Class of executed instruction
system.switch_cpus1.op_class::SimdFloatDiv            0      0.00%     75.05% # Class of executed instruction
system.switch_cpus1.op_class::SimdFloatMisc            0      0.00%     75.05% # Class of executed instruction
system.switch_cpus1.op_class::SimdFloatMult            0      0.00%     75.05% # Class of executed instruction
system.switch_cpus1.op_class::SimdFloatMultAcc            0      0.00%     75.05% # Class of executed instruction
system.switch_cpus1.op_class::SimdFloatSqrt            0      0.00%     75.05% # Class of executed instruction
system.switch_cpus1.op_class::SimdReduceAdd            0      0.00%     75.05% # Class of executed instruction
system.switch_cpus1.op_class::SimdReduceAlu            0      0.00%     75.05% # Class of executed instruction
system.switch_cpus1.op_class::SimdReduceCmp            0      0.00%     75.05% # Class of executed instruction
system.switch_cpus1.op_class::SimdFloatReduceAdd            0      0.00%     75.05% # Class of executed instruction
system.switch_cpus1.op_class::SimdFloatReduceCmp            0      0.00%     75.05% # Class of executed instruction
system.switch_cpus1.op_class::SimdAes               0      0.00%     75.05% # Class of executed instruction
system.switch_cpus1.op_class::SimdAesMix            0      0.00%     75.05% # Class of executed instruction
system.switch_cpus1.op_class::SimdSha1Hash            0      0.00%     75.05% # Class of executed instruction
system.switch_cpus1.op_class::SimdSha1Hash2            0      0.00%     75.05% # Class of executed instruction
system.switch_cpus1.op_class::SimdSha256Hash            0      0.00%     75.05% # Class of executed instruction
system.switch_cpus1.op_class::SimdSha256Hash2            0      0.00%     75.05% # Class of executed instruction
system.switch_cpus1.op_class::SimdShaSigma2            0      0.00%     75.05% # Class of executed instruction
system.switch_cpus1.op_class::SimdShaSigma3            0      0.00%     75.05% # Class of executed instruction
system.switch_cpus1.op_class::SimdPredAlu            0      0.00%     75.05% # Class of executed instruction
system.switch_cpus1.op_class::MemRead          289904     14.32%     89.37% # Class of executed instruction
system.switch_cpus1.op_class::MemWrite         212546     10.50%     99.87% # Class of executed instruction
system.switch_cpus1.op_class::FloatMemRead         1982      0.10%     99.97% # Class of executed instruction
system.switch_cpus1.op_class::FloatMemWrite          654      0.03%    100.00% # Class of executed instruction
system.switch_cpus1.op_class::IprAccess             0      0.00%    100.00% # Class of executed instruction
system.switch_cpus1.op_class::InstPrefetch            0      0.00%    100.00% # Class of executed instruction
system.switch_cpus1.op_class::total           2024684                       # Class of executed instruction
system.switch_cpus_10.branchPred.BTBCorrect            0                       # Number of correct BTB predictions (this stat may not work properly.
system.switch_cpus_10.branchPred.BTBHitPct     0.000000                       # BTB Hit Percentage
system.switch_cpus_10.branchPred.BTBHits            0                       # Number of BTB hits
system.switch_cpus_10.branchPred.BTBLookups      4631114                       # Number of BTB lookups
system.switch_cpus_10.branchPred.RASInCorrect          229                       # Number of incorrect RAS predictions.
system.switch_cpus_10.branchPred.condIncorrect       317792                       # Number of conditional branches incorrect
system.switch_cpus_10.branchPred.condPredicted      4469778                       # Number of conditional branches predicted
system.switch_cpus_10.branchPred.indirectHits      1895300                       # Number of indirect target hits.
system.switch_cpus_10.branchPred.indirectLookups      4631114                       # Number of indirect predictor lookups.
system.switch_cpus_10.branchPred.indirectMisses      2735814                       # Number of indirect misses.
system.switch_cpus_10.branchPred.lookups      5264417                       # Number of BP lookups
system.switch_cpus_10.branchPred.usedRAS       342395                       # Number of times the RAS was used to get a target.
system.switch_cpus_10.branchPredindirectMispredicted       246753                       # Number of mispredicted indirect branches.
system.switch_cpus_10.cc_regfile_reads       24666797                       # number of cc regfile reads
system.switch_cpus_10.cc_regfile_writes      21632771                       # number of cc regfile writes
system.switch_cpus_10.commit.amos                   0                       # Number of atomic instructions committed
system.switch_cpus_10.commit.branchMispredicts       317793                       # The number of times a branch was mispredicted
system.switch_cpus_10.commit.branches         3557173                       # Number of branches committed
system.switch_cpus_10.commit.bw_lim_events      4632050                       # number cycles where commit BW limit reached
system.switch_cpus_10.commit.commitNonSpecStalls         3832                       # The number of times commit has been forced to stall to communicate backwards
system.switch_cpus_10.commit.commitSquashedInsts      8961002                       # The number of squashed insts skipped by commit
system.switch_cpus_10.commit.committedInsts     50000000                       # Number of instructions committed
system.switch_cpus_10.commit.committedOps     73616464                       # Number of ops (including micro ops) committed
system.switch_cpus_10.commit.committed_per_cycle::samples     60231220                       # Number of insts commited each cycle
system.switch_cpus_10.commit.committed_per_cycle::mean     1.222231                       # Number of insts commited each cycle
system.switch_cpus_10.commit.committed_per_cycle::stdev     2.365067                       # Number of insts commited each cycle
system.switch_cpus_10.commit.committed_per_cycle::underflows            0      0.00%      0.00% # Number of insts commited each cycle
system.switch_cpus_10.commit.committed_per_cycle::0     40673912     67.53%     67.53% # Number of insts commited each cycle
system.switch_cpus_10.commit.committed_per_cycle::1      6189914     10.28%     77.81% # Number of insts commited each cycle
system.switch_cpus_10.commit.committed_per_cycle::2      2841008      4.72%     82.52% # Number of insts commited each cycle
system.switch_cpus_10.commit.committed_per_cycle::3      2315938      3.85%     86.37% # Number of insts commited each cycle
system.switch_cpus_10.commit.committed_per_cycle::4      1552799      2.58%     88.95% # Number of insts commited each cycle
system.switch_cpus_10.commit.committed_per_cycle::5      1192683      1.98%     90.93% # Number of insts commited each cycle
system.switch_cpus_10.commit.committed_per_cycle::6       264703      0.44%     91.37% # Number of insts commited each cycle
system.switch_cpus_10.commit.committed_per_cycle::7       568213      0.94%     92.31% # Number of insts commited each cycle
system.switch_cpus_10.commit.committed_per_cycle::8      4632050      7.69%    100.00% # Number of insts commited each cycle
system.switch_cpus_10.commit.committed_per_cycle::overflows            0      0.00%    100.00% # Number of insts commited each cycle
system.switch_cpus_10.commit.committed_per_cycle::min_value            0                       # Number of insts commited each cycle
system.switch_cpus_10.commit.committed_per_cycle::max_value            8                       # Number of insts commited each cycle
system.switch_cpus_10.commit.committed_per_cycle::total     60231220                       # Number of insts commited each cycle
system.switch_cpus_10.commit.fp_insts        33103885                       # Number of committed floating point instructions.
system.switch_cpus_10.commit.function_calls       235708                       # Number of function calls committed.
system.switch_cpus_10.commit.int_insts       53245300                       # Number of committed integer instructions.
system.switch_cpus_10.commit.loads           17968309                       # Number of loads committed
system.switch_cpus_10.commit.membars             2184                       # Number of memory barriers committed
system.switch_cpus_10.commit.op_class_0::No_OpClass       114308      0.16%      0.16% # Class of committed instruction
system.switch_cpus_10.commit.op_class_0::IntAlu     29895995     40.61%     40.77% # Class of committed instruction
system.switch_cpus_10.commit.op_class_0::IntMult      1051831      1.43%     42.19% # Class of committed instruction
system.switch_cpus_10.commit.op_class_0::IntDiv         9587      0.01%     42.21% # Class of committed instruction
system.switch_cpus_10.commit.op_class_0::FloatAdd         5556      0.01%     42.22% # Class of committed instruction
system.switch_cpus_10.commit.op_class_0::FloatCmp            0      0.00%     42.22% # Class of committed instruction
system.switch_cpus_10.commit.op_class_0::FloatCvt          112      0.00%     42.22% # Class of committed instruction
system.switch_cpus_10.commit.op_class_0::FloatMult            0      0.00%     42.22% # Class of committed instruction
system.switch_cpus_10.commit.op_class_0::FloatMultAcc            0      0.00%     42.22% # Class of committed instruction
system.switch_cpus_10.commit.op_class_0::FloatDiv            0      0.00%     42.22% # Class of committed instruction
system.switch_cpus_10.commit.op_class_0::FloatMisc            0      0.00%     42.22% # Class of committed instruction
system.switch_cpus_10.commit.op_class_0::FloatSqrt            0      0.00%     42.22% # Class of committed instruction
system.switch_cpus_10.commit.op_class_0::SimdAdd        17302      0.02%     42.24% # Class of committed instruction
system.switch_cpus_10.commit.op_class_0::SimdAddAcc            0      0.00%     42.24% # Class of committed instruction
system.switch_cpus_10.commit.op_class_0::SimdAlu       179772      0.24%     42.48% # Class of committed instruction
system.switch_cpus_10.commit.op_class_0::SimdCmp          404      0.00%     42.48% # Class of committed instruction
system.switch_cpus_10.commit.op_class_0::SimdCvt       116256      0.16%     42.64% # Class of committed instruction
system.switch_cpus_10.commit.op_class_0::SimdMisc      1691367      2.30%     44.94% # Class of committed instruction
system.switch_cpus_10.commit.op_class_0::SimdMult            0      0.00%     44.94% # Class of committed instruction
system.switch_cpus_10.commit.op_class_0::SimdMultAcc            0      0.00%     44.94% # Class of committed instruction
system.switch_cpus_10.commit.op_class_0::SimdShift         3410      0.00%     44.94% # Class of committed instruction
system.switch_cpus_10.commit.op_class_0::SimdShiftAcc            0      0.00%     44.94% # Class of committed instruction
system.switch_cpus_10.commit.op_class_0::SimdDiv            0      0.00%     44.94% # Class of committed instruction
system.switch_cpus_10.commit.op_class_0::SimdSqrt            0      0.00%     44.94% # Class of committed instruction
system.switch_cpus_10.commit.op_class_0::SimdFloatAdd      4187437      5.69%     50.63% # Class of committed instruction
system.switch_cpus_10.commit.op_class_0::SimdFloatAlu            0      0.00%     50.63% # Class of committed instruction
system.switch_cpus_10.commit.op_class_0::SimdFloatCmp            0      0.00%     50.63% # Class of committed instruction
system.switch_cpus_10.commit.op_class_0::SimdFloatCvt      6804987      9.24%     59.88% # Class of committed instruction
system.switch_cpus_10.commit.op_class_0::SimdFloatDiv      3140377      4.27%     64.14% # Class of committed instruction
system.switch_cpus_10.commit.op_class_0::SimdFloatMisc            0      0.00%     64.14% # Class of committed instruction
system.switch_cpus_10.commit.op_class_0::SimdFloatMult      4710594      6.40%     70.54% # Class of committed instruction
system.switch_cpus_10.commit.op_class_0::SimdFloatMultAcc            0      0.00%     70.54% # Class of committed instruction
system.switch_cpus_10.commit.op_class_0::SimdFloatSqrt       523396      0.71%     71.25% # Class of committed instruction
system.switch_cpus_10.commit.op_class_0::SimdReduceAdd            0      0.00%     71.25% # Class of committed instruction
system.switch_cpus_10.commit.op_class_0::SimdReduceAlu            0      0.00%     71.25% # Class of committed instruction
system.switch_cpus_10.commit.op_class_0::SimdReduceCmp            0      0.00%     71.25% # Class of committed instruction
system.switch_cpus_10.commit.op_class_0::SimdFloatReduceAdd            0      0.00%     71.25% # Class of committed instruction
system.switch_cpus_10.commit.op_class_0::SimdFloatReduceCmp            0      0.00%     71.25% # Class of committed instruction
system.switch_cpus_10.commit.op_class_0::SimdAes            0      0.00%     71.25% # Class of committed instruction
system.switch_cpus_10.commit.op_class_0::SimdAesMix            0      0.00%     71.25% # Class of committed instruction
system.switch_cpus_10.commit.op_class_0::SimdSha1Hash            0      0.00%     71.25% # Class of committed instruction
system.switch_cpus_10.commit.op_class_0::SimdSha1Hash2            0      0.00%     71.25% # Class of committed instruction
system.switch_cpus_10.commit.op_class_0::SimdSha256Hash            0      0.00%     71.25% # Class of committed instruction
system.switch_cpus_10.commit.op_class_0::SimdSha256Hash2            0      0.00%     71.25% # Class of committed instruction
system.switch_cpus_10.commit.op_class_0::SimdShaSigma2            0      0.00%     71.25% # Class of committed instruction
system.switch_cpus_10.commit.op_class_0::SimdShaSigma3            0      0.00%     71.25% # Class of committed instruction
system.switch_cpus_10.commit.op_class_0::SimdPredAlu            0      0.00%     71.25% # Class of committed instruction
system.switch_cpus_10.commit.op_class_0::MemRead      8926178     12.13%     83.38% # Class of committed instruction
system.switch_cpus_10.commit.op_class_0::MemWrite      1051230      1.43%     84.80% # Class of committed instruction
system.switch_cpus_10.commit.op_class_0::FloatMemRead      9042131     12.28%     97.09% # Class of committed instruction
system.switch_cpus_10.commit.op_class_0::FloatMemWrite      2144234      2.91%    100.00% # Class of committed instruction
system.switch_cpus_10.commit.op_class_0::IprAccess            0      0.00%    100.00% # Class of committed instruction
system.switch_cpus_10.commit.op_class_0::InstPrefetch            0      0.00%    100.00% # Class of committed instruction
system.switch_cpus_10.commit.op_class_0::total     73616464                       # Class of committed instruction
system.switch_cpus_10.commit.refs            21163773                       # Number of memory references committed
system.switch_cpus_10.commit.swp_count              0                       # Number of s/w prefetches committed
system.switch_cpus_10.commit.vec_insts              0                       # Number of committed Vector instructions.
system.switch_cpus_10.committedInsts         50000000                       # Number of Instructions Simulated
system.switch_cpus_10.committedOps           73616464                       # Number of Ops (including micro ops) Simulated
system.switch_cpus_10.cpi                    1.242404                       # CPI: Cycles Per Instruction
system.switch_cpus_10.cpi_total              1.242404                       # CPI: Total CPI of All Threads
system.switch_cpus_10.decode.BlockedCycles     37432647                       # Number of cycles decode is blocked
system.switch_cpus_10.decode.DecodedInsts     86277596                       # Number of instructions handled by decode
system.switch_cpus_10.decode.IdleCycles      10967811                       # Number of cycles decode is idle
system.switch_cpus_10.decode.RunCycles       12037469                       # Number of cycles decode is running
system.switch_cpus_10.decode.SquashCycles       328866                       # Number of cycles decode is squashing
system.switch_cpus_10.decode.UnblockCycles       836318                       # Number of cycles decode is unblocking
system.switch_cpus_10.dtb.rdAccesses         18841444                       # TLB accesses on read requests
system.switch_cpus_10.dtb.rdMisses               8471                       # TLB misses on read requests
system.switch_cpus_10.dtb.wrAccesses          3728784                       # TLB accesses on write requests
system.switch_cpus_10.dtb.wrMisses               5369                       # TLB misses on write requests
system.switch_cpus_10.fetch.Branches          5264417                       # Number of branches that fetch encountered
system.switch_cpus_10.fetch.CacheLines        5492759                       # Number of cache lines fetched
system.switch_cpus_10.fetch.Cycles           49502555                       # Number of cycles fetch has run and was not squashing or blocked
system.switch_cpus_10.fetch.IcacheSquashes       133916                       # Number of outstanding Icache misses that were squashed
system.switch_cpus_10.fetch.IcacheWaitRetryStallCycles          940                       # Number of stall cycles due to full MSHR
system.switch_cpus_10.fetch.Insts            57247398                       # Number of instructions fetch has processed
system.switch_cpus_10.fetch.MiscStallCycles          288                       # Number of cycles fetch has spent waiting on interrupts, or bad addresses, or out of MSHRs
system.switch_cpus_10.fetch.PendingTrapStallCycles           10                       # Number of stall cycles due to pending traps
system.switch_cpus_10.fetch.SquashCycles       657732                       # Number of cycles fetch has spent squashing
system.switch_cpus_10.fetch.branchRate       0.084746                       # Number of branch fetches per cycle
system.switch_cpus_10.fetch.icacheStallCycles     11770457                       # Number of cycles fetch is stalled on an Icache miss
system.switch_cpus_10.fetch.predictedBranches      2237695                       # Number of branches that fetch has predicted taken
system.switch_cpus_10.fetch.rate             0.921558                       # Number of inst fetches per cycle
system.switch_cpus_10.fetch.rateDist::samples     61603116                       # Number of instructions fetched each cycle (Total)
system.switch_cpus_10.fetch.rateDist::mean     1.431718                       # Number of instructions fetched each cycle (Total)
system.switch_cpus_10.fetch.rateDist::stdev     2.884165                       # Number of instructions fetched each cycle (Total)
system.switch_cpus_10.fetch.rateDist::underflows            0      0.00%      0.00% # Number of instructions fetched each cycle (Total)
system.switch_cpus_10.fetch.rateDist::0      47820043     77.63%     77.63% # Number of instructions fetched each cycle (Total)
system.switch_cpus_10.fetch.rateDist::1        294350      0.48%     78.10% # Number of instructions fetched each cycle (Total)
system.switch_cpus_10.fetch.rateDist::2        875139      1.42%     79.52% # Number of instructions fetched each cycle (Total)
system.switch_cpus_10.fetch.rateDist::3       1978501      3.21%     82.74% # Number of instructions fetched each cycle (Total)
system.switch_cpus_10.fetch.rateDist::4        508139      0.82%     83.56% # Number of instructions fetched each cycle (Total)
system.switch_cpus_10.fetch.rateDist::5        407070      0.66%     84.22% # Number of instructions fetched each cycle (Total)
system.switch_cpus_10.fetch.rateDist::6        433044      0.70%     84.92% # Number of instructions fetched each cycle (Total)
system.switch_cpus_10.fetch.rateDist::7        742677      1.21%     86.13% # Number of instructions fetched each cycle (Total)
system.switch_cpus_10.fetch.rateDist::8       8544153     13.87%    100.00% # Number of instructions fetched each cycle (Total)
system.switch_cpus_10.fetch.rateDist::overflows            0      0.00%    100.00% # Number of instructions fetched each cycle (Total)
system.switch_cpus_10.fetch.rateDist::min_value            0                       # Number of instructions fetched each cycle (Total)
system.switch_cpus_10.fetch.rateDist::max_value            8                       # Number of instructions fetched each cycle (Total)
system.switch_cpus_10.fetch.rateDist::total     61603116                       # Number of instructions fetched each cycle (Total)
system.switch_cpus_10.fp_regfile_reads       56815627                       # number of floating regfile reads
system.switch_cpus_10.fp_regfile_writes      30599627                       # number of floating regfile writes
system.switch_cpus_10.idleCycles               517099                       # Total number of cycles that the CPU has spent unscheduled due to idling
system.switch_cpus_10.iew.branchMispredicts       417650                       # Number of branch mispredicts detected at execute
system.switch_cpus_10.iew.exec_branches       3995466                       # Number of branches executed
system.switch_cpus_10.iew.exec_nop                  0                       # number of nop insts executed
system.switch_cpus_10.iew.exec_rate          1.276988                       # Inst execution rate
system.switch_cpus_10.iew.exec_refs          22565260                       # number of memory reference insts executed
system.switch_cpus_10.iew.exec_stores         3727944                       # Number of stores executed
system.switch_cpus_10.iew.exec_swp                  0                       # number of swp insts executed
system.switch_cpus_10.iew.iewBlockCycles      1313354                       # Number of cycles IEW is blocking
system.switch_cpus_10.iew.iewDispLoadInsts     19376997                       # Number of dispatched load instructions
system.switch_cpus_10.iew.iewDispNonSpecInsts         3677                       # Number of dispatched non-speculative instructions
system.switch_cpus_10.iew.iewDispSquashedInsts       153138                       # Number of squashed instructions skipped by dispatch
system.switch_cpus_10.iew.iewDispStoreInsts      4067666                       # Number of dispatched store instructions
system.switch_cpus_10.iew.iewDispatchedInsts     82874824                       # Number of instructions dispatched to IQ
system.switch_cpus_10.iew.iewExecLoadInsts     18837316                       # Number of load instructions executed
system.switch_cpus_10.iew.iewExecSquashedInsts       650571                       # Number of squashed instructions skipped in execute
system.switch_cpus_10.iew.iewExecutedInsts     79326771                       # Number of executed instructions
system.switch_cpus_10.iew.iewIQFullEvents         5653                       # Number of times the IQ has become full, causing a stall
system.switch_cpus_10.iew.iewIdleCycles             0                       # Number of cycles IEW is idle
system.switch_cpus_10.iew.iewLSQFullEvents      4225268                       # Number of times the LSQ has become full, causing a stall
system.switch_cpus_10.iew.iewSquashCycles       328866                       # Number of cycles IEW is squashing
system.switch_cpus_10.iew.iewUnblockCycles      4232652                       # Number of cycles IEW is unblocking
system.switch_cpus_10.iew.lsq.thread0.blockedLoads            0                       # Number of blocked loads due to partial load-store forwarding
system.switch_cpus_10.iew.lsq.thread0.cacheBlocked          415                       # Number of times an access to memory failed due to the cache being blocked
system.switch_cpus_10.iew.lsq.thread0.forwLoads      1244318                       # Number of loads that had data forwarded from stores
system.switch_cpus_10.iew.lsq.thread0.ignoredResponses         3052                       # Number of memory responses ignored because the instruction is squashed
system.switch_cpus_10.iew.lsq.thread0.invAddrLoads            0                       # Number of loads ignored due to an invalid address
system.switch_cpus_10.iew.lsq.thread0.invAddrSwpfs            0                       # Number of software prefetches ignored due to an invalid address
system.switch_cpus_10.iew.lsq.thread0.memOrderViolation         1513                       # Number of memory ordering violations
system.switch_cpus_10.iew.lsq.thread0.rescheduledLoads          757                       # Number of loads that were rescheduled
system.switch_cpus_10.iew.lsq.thread0.squashedLoads      1408673                       # Number of loads squashed
system.switch_cpus_10.iew.lsq.thread0.squashedStores       872200                       # Number of stores squashed
system.switch_cpus_10.iew.memOrderViolationEvents         1513                       # Number of memory order violations
system.switch_cpus_10.iew.predictedNotTakenIncorrect       362068                       # Number of branches that were predicted not taken incorrectly
system.switch_cpus_10.iew.predictedTakenIncorrect        55582                       # Number of branches that were predicted taken incorrectly
system.switch_cpus_10.iew.wb_consumers      113813017                       # num instructions consuming a value
system.switch_cpus_10.iew.wb_count           78895752                       # cumulative count of insts written-back
system.switch_cpus_10.iew.wb_fanout          0.585467                       # average fanout of values written-back
system.switch_cpus_10.iew.wb_producers       66633771                       # num instructions producing a value
system.switch_cpus_10.iew.wb_rate            1.270050                       # insts written-back per cycle
system.switch_cpus_10.iew.wb_sent            79054506                       # cumulative count of insts sent to commit
system.switch_cpus_10.int_regfile_reads      97087584                       # number of integer regfile reads
system.switch_cpus_10.int_regfile_writes     41040919                       # number of integer regfile writes
system.switch_cpus_10.ipc                    0.804891                       # IPC: Instructions Per Cycle
system.switch_cpus_10.ipc_total              0.804891                       # IPC: Total IPC of All Threads
system.switch_cpus_10.iq.FU_type_0::No_OpClass       297532      0.37%      0.37% # Type of FU issued
system.switch_cpus_10.iq.FU_type_0::IntAlu     34397470     43.01%     43.38% # Type of FU issued
system.switch_cpus_10.iq.FU_type_0::IntMult      1055602      1.32%     44.70% # Type of FU issued
system.switch_cpus_10.iq.FU_type_0::IntDiv        10104      0.01%     44.71% # Type of FU issued
system.switch_cpus_10.iq.FU_type_0::FloatAdd         8958      0.01%     44.72% # Type of FU issued
system.switch_cpus_10.iq.FU_type_0::FloatCmp            0      0.00%     44.72% # Type of FU issued
system.switch_cpus_10.iq.FU_type_0::FloatCvt          450      0.00%     44.73% # Type of FU issued
system.switch_cpus_10.iq.FU_type_0::FloatMult            0      0.00%     44.73% # Type of FU issued
system.switch_cpus_10.iq.FU_type_0::FloatMultAcc            0      0.00%     44.73% # Type of FU issued
system.switch_cpus_10.iq.FU_type_0::FloatDiv            0      0.00%     44.73% # Type of FU issued
system.switch_cpus_10.iq.FU_type_0::FloatMisc            0      0.00%     44.73% # Type of FU issued
system.switch_cpus_10.iq.FU_type_0::FloatSqrt            0      0.00%     44.73% # Type of FU issued
system.switch_cpus_10.iq.FU_type_0::SimdAdd        18989      0.02%     44.75% # Type of FU issued
system.switch_cpus_10.iq.FU_type_0::SimdAddAcc            0      0.00%     44.75% # Type of FU issued
system.switch_cpus_10.iq.FU_type_0::SimdAlu       187590      0.23%     44.98% # Type of FU issued
system.switch_cpus_10.iq.FU_type_0::SimdCmp          647      0.00%     44.98% # Type of FU issued
system.switch_cpus_10.iq.FU_type_0::SimdCvt       121663      0.15%     45.14% # Type of FU issued
system.switch_cpus_10.iq.FU_type_0::SimdMisc      1700824      2.13%     47.26% # Type of FU issued
system.switch_cpus_10.iq.FU_type_0::SimdMult            0      0.00%     47.26% # Type of FU issued
system.switch_cpus_10.iq.FU_type_0::SimdMultAcc            0      0.00%     47.26% # Type of FU issued
system.switch_cpus_10.iq.FU_type_0::SimdShift         5511      0.01%     47.27% # Type of FU issued
system.switch_cpus_10.iq.FU_type_0::SimdShiftAcc            0      0.00%     47.27% # Type of FU issued
system.switch_cpus_10.iq.FU_type_0::SimdDiv            0      0.00%     47.27% # Type of FU issued
system.switch_cpus_10.iq.FU_type_0::SimdSqrt            0      0.00%     47.27% # Type of FU issued
system.switch_cpus_10.iq.FU_type_0::SimdFloatAdd      4189449      5.24%     52.51% # Type of FU issued
system.switch_cpus_10.iq.FU_type_0::SimdFloatAlu            0      0.00%     52.51% # Type of FU issued
system.switch_cpus_10.iq.FU_type_0::SimdFloatCmp            0      0.00%     52.51% # Type of FU issued
system.switch_cpus_10.iq.FU_type_0::SimdFloatCvt      6829041      8.54%     61.05% # Type of FU issued
system.switch_cpus_10.iq.FU_type_0::SimdFloatDiv      3149884      3.94%     64.99% # Type of FU issued
system.switch_cpus_10.iq.FU_type_0::SimdFloatMisc            0      0.00%     64.99% # Type of FU issued
system.switch_cpus_10.iq.FU_type_0::SimdFloatMult      4716181      5.90%     70.88% # Type of FU issued
system.switch_cpus_10.iq.FU_type_0::SimdFloatMultAcc            0      0.00%     70.88% # Type of FU issued
system.switch_cpus_10.iq.FU_type_0::SimdFloatSqrt       523396      0.65%     71.54% # Type of FU issued
system.switch_cpus_10.iq.FU_type_0::SimdReduceAdd            0      0.00%     71.54% # Type of FU issued
system.switch_cpus_10.iq.FU_type_0::SimdReduceAlu            0      0.00%     71.54% # Type of FU issued
system.switch_cpus_10.iq.FU_type_0::SimdReduceCmp            0      0.00%     71.54% # Type of FU issued
system.switch_cpus_10.iq.FU_type_0::SimdFloatReduceAdd            0      0.00%     71.54% # Type of FU issued
system.switch_cpus_10.iq.FU_type_0::SimdFloatReduceCmp            0      0.00%     71.54% # Type of FU issued
system.switch_cpus_10.iq.FU_type_0::SimdAes            0      0.00%     71.54% # Type of FU issued
system.switch_cpus_10.iq.FU_type_0::SimdAesMix            0      0.00%     71.54% # Type of FU issued
system.switch_cpus_10.iq.FU_type_0::SimdSha1Hash            0      0.00%     71.54% # Type of FU issued
system.switch_cpus_10.iq.FU_type_0::SimdSha1Hash2            0      0.00%     71.54% # Type of FU issued
system.switch_cpus_10.iq.FU_type_0::SimdSha256Hash            0      0.00%     71.54% # Type of FU issued
system.switch_cpus_10.iq.FU_type_0::SimdSha256Hash2            0      0.00%     71.54% # Type of FU issued
system.switch_cpus_10.iq.FU_type_0::SimdShaSigma2            0      0.00%     71.54% # Type of FU issued
system.switch_cpus_10.iq.FU_type_0::SimdShaSigma3            0      0.00%     71.54% # Type of FU issued
system.switch_cpus_10.iq.FU_type_0::SimdPredAlu            0      0.00%     71.54% # Type of FU issued
system.switch_cpus_10.iq.FU_type_0::MemRead      9671467     12.09%     83.63% # Type of FU issued
system.switch_cpus_10.iq.FU_type_0::MemWrite      1464794      1.83%     85.46% # Type of FU issued
system.switch_cpus_10.iq.FU_type_0::FloatMemRead      9288800     11.61%     97.08% # Type of FU issued
system.switch_cpus_10.iq.FU_type_0::FloatMemWrite      2338997      2.92%    100.00% # Type of FU issued
system.switch_cpus_10.iq.FU_type_0::IprAccess            0      0.00%    100.00% # Type of FU issued
system.switch_cpus_10.iq.FU_type_0::InstPrefetch            0      0.00%    100.00% # Type of FU issued
system.switch_cpus_10.iq.FU_type_0::total     79977349                       # Type of FU issued
system.switch_cpus_10.iq.fp_alu_accesses     34276794                       # Number of floating point alu accesses
system.switch_cpus_10.iq.fp_inst_queue_reads     67903751                       # Number of floating instruction queue reads
system.switch_cpus_10.iq.fp_inst_queue_wakeup_accesses     33542178                       # Number of floating instruction queue wakeup accesses
system.switch_cpus_10.iq.fp_inst_queue_writes     34458804                       # Number of floating instruction queue writes
system.switch_cpus_10.iq.fu_busy_cnt          1473237                       # FU busy when requested
system.switch_cpus_10.iq.fu_busy_rate        0.018421                       # FU busy rate (busy events/executed inst)
system.switch_cpus_10.iq.fu_full::No_OpClass            0      0.00%      0.00% # attempts to use FU when none available
system.switch_cpus_10.iq.fu_full::IntAlu       261778     17.77%     17.77% # attempts to use FU when none available
system.switch_cpus_10.iq.fu_full::IntMult            0      0.00%     17.77% # attempts to use FU when none available
system.switch_cpus_10.iq.fu_full::IntDiv            0      0.00%     17.77% # attempts to use FU when none available
system.switch_cpus_10.iq.fu_full::FloatAdd            0      0.00%     17.77% # attempts to use FU when none available
system.switch_cpus_10.iq.fu_full::FloatCmp            0      0.00%     17.77% # attempts to use FU when none available
system.switch_cpus_10.iq.fu_full::FloatCvt            0      0.00%     17.77% # attempts to use FU when none available
system.switch_cpus_10.iq.fu_full::FloatMult            0      0.00%     17.77% # attempts to use FU when none available
system.switch_cpus_10.iq.fu_full::FloatMultAcc            0      0.00%     17.77% # attempts to use FU when none available
system.switch_cpus_10.iq.fu_full::FloatDiv            0      0.00%     17.77% # attempts to use FU when none available
system.switch_cpus_10.iq.fu_full::FloatMisc            0      0.00%     17.77% # attempts to use FU when none available
system.switch_cpus_10.iq.fu_full::FloatSqrt            0      0.00%     17.77% # attempts to use FU when none available
system.switch_cpus_10.iq.fu_full::SimdAdd            3      0.00%     17.77% # attempts to use FU when none available
system.switch_cpus_10.iq.fu_full::SimdAddAcc            0      0.00%     17.77% # attempts to use FU when none available
system.switch_cpus_10.iq.fu_full::SimdAlu        18353      1.25%     19.01% # attempts to use FU when none available
system.switch_cpus_10.iq.fu_full::SimdCmp            1      0.00%     19.01% # attempts to use FU when none available
system.switch_cpus_10.iq.fu_full::SimdCvt          244      0.02%     19.03% # attempts to use FU when none available
system.switch_cpus_10.iq.fu_full::SimdMisc         9990      0.68%     19.71% # attempts to use FU when none available
system.switch_cpus_10.iq.fu_full::SimdMult            0      0.00%     19.71% # attempts to use FU when none available
[...]
system.cpu1.l2cache.tags.occ_blocks::.switch_cpus_11.inst     0.192022                       # Average occupied blocks per requestor
system.cpu1.l2cache.tags.occ_blocks::.switch_cpus_11.data    66.815627                       # Average occupied blocks per requestor
system.cpu1.l2cache.tags.occ_percent::.cpu1.inst     0.000001                       # Average percentage of cache occupancy
system.cpu1.l2cache.tags.occ_percent::.cpu1.data     0.000005                       # Average percentage of cache occupancy
system.cpu1.l2cache.tags.occ_percent::.cpu1.dcache.prefetcher     0.000030                       # Average percentage of cache occupancy
system.cpu1.l2cache.tags.occ_percent::.switch_cpus1.inst     0.000177                       # Average percentage of cache occupancy
system.cpu1.l2cache.tags.occ_percent::.switch_cpus1.data     0.002884                       # Average percentage of cache occupancy
system.cpu1.l2cache.tags.occ_percent::.switch_cpus_11.inst     0.000047                       # Average percentage of cache occupancy
system.cpu1.l2cache.tags.occ_percent::.switch_cpus_11.data     0.016312                       # Average percentage of cache occupancy
system.cpu1.l2cache.tags.occ_percent::total     0.019457                       # Average percentage of cache occupancy
system.cpu1.l2cache.tags.occ_task_id_blocks::1022            6                       # Occupied blocks per task id
system.cpu1.l2cache.tags.occ_task_id_blocks::1024         4090                       # Occupied blocks per task id
system.cpu1.l2cache.tags.age_task_id_blocks_1022::3            2                       # Occupied blocks per task id
system.cpu1.l2cache.tags.age_task_id_blocks_1022::4            4                       # Occupied blocks per task id
system.cpu1.l2cache.tags.age_task_id_blocks_1024::0           11                       # Occupied blocks per task id
system.cpu1.l2cache.tags.age_task_id_blocks_1024::1           94                       # Occupied blocks per task id
system.cpu1.l2cache.tags.age_task_id_blocks_1024::2          870                       # Occupied blocks per task id
system.cpu1.l2cache.tags.age_task_id_blocks_1024::3         2605                       # Occupied blocks per task id
system.cpu1.l2cache.tags.age_task_id_blocks_1024::4          510                       # Occupied blocks per task id
system.cpu1.l2cache.tags.occ_task_id_percent::1022     0.001465                       # Percentage of cache occupancy per task id
system.cpu1.l2cache.tags.occ_task_id_percent::1024     0.998535                       # Percentage of cache occupancy per task id
system.cpu1.l2cache.tags.tag_accesses         1783888                       # Number of tag accesses
system.cpu1.l2cache.tags.data_accesses        1783888                       # Number of data accesses
system.cpu1.toL2Bus.pwrStateResidencyTicks::UNDEFINED 1321688871309                       # Cumulative time (in ticks) in various power states
system.cpu1.toL2Bus.trans_dist::ReadResp        55105                       # Transaction distribution
system.cpu1.toL2Bus.trans_dist::WritebackDirty          180                       # Transaction distribution
system.cpu1.toL2Bus.trans_dist::CleanEvict        79710                       # Transaction distribution
system.cpu1.toL2Bus.trans_dist::ReadExReq          145                       # Transaction distribution
system.cpu1.toL2Bus.trans_dist::ReadExResp          145                       # Transaction distribution
system.cpu1.toL2Bus.trans_dist::ReadCleanReq          285                       # Transaction distribution
system.cpu1.toL2Bus.trans_dist::ReadSharedReq        54821                       # Transaction distribution
system.cpu1.toL2Bus.pkt_count_system.cpu1.icache.mem_side::system.cpu1.l2cache.cpu_side          570                       # Packet count per connected master and slave (bytes)
system.cpu1.toL2Bus.pkt_count_system.cpu1.dcache.mem_side::system.cpu1.l2cache.cpu_side       164384                       # Packet count per connected master and slave (bytes)
system.cpu1.toL2Bus.pkt_count::total           164954                       # Packet count per connected master and slave (bytes)
system.cpu1.toL2Bus.pkt_size_system.cpu1.icache.mem_side::system.cpu1.l2cache.cpu_side        18240                       # Cumulative packet size per connected master and slave (bytes)
system.cpu1.toL2Bus.pkt_size_system.cpu1.dcache.mem_side::system.cpu1.l2cache.cpu_side      3528768                       # Cumulative packet size per connected master and slave (bytes)
system.cpu1.toL2Bus.pkt_size::total           3547008                       # Cumulative packet size per connected master and slave (bytes)
system.cpu1.toL2Bus.snoops                      25437                       # Total snoops (count)
system.cpu1.toL2Bus.snoopTraffic                  512                       # Total snoop traffic (bytes)
system.cpu1.toL2Bus.snoop_fanout::samples        80688                       # Request fanout histogram
system.cpu1.toL2Bus.snoop_fanout::mean       0.006197                       # Request fanout histogram
system.cpu1.toL2Bus.snoop_fanout::stdev      0.078475                       # Request fanout histogram
system.cpu1.toL2Bus.snoop_fanout::underflows            0      0.00%      0.00% # Request fanout histogram
system.cpu1.toL2Bus.snoop_fanout::0             80188     99.38%     99.38% # Request fanout histogram
system.cpu1.toL2Bus.snoop_fanout::1               500      0.62%    100.00% # Request fanout histogram
system.cpu1.toL2Bus.snoop_fanout::2                 0      0.00%    100.00% # Request fanout histogram
system.cpu1.toL2Bus.snoop_fanout::3                 0      0.00%    100.00% # Request fanout histogram
system.cpu1.toL2Bus.snoop_fanout::4                 0      0.00%    100.00% # Request fanout histogram
system.cpu1.toL2Bus.snoop_fanout::overflows            0      0.00%    100.00% # Request fanout histogram
system.cpu1.toL2Bus.snoop_fanout::min_value            0                       # Request fanout histogram
system.cpu1.toL2Bus.snoop_fanout::max_value            1                       # Request fanout histogram
system.cpu1.toL2Bus.snoop_fanout::total         80688                       # Request fanout histogram
system.cpu1.toL2Bus.reqLayer0.occupancy      45924126                       # Layer occupancy (ticks)
system.cpu1.toL2Bus.reqLayer0.utilization          0.2                       # Layer utilization (%)
system.cpu1.toL2Bus.respLayer1.occupancy     68759964                       # Layer occupancy (ticks)
system.cpu1.toL2Bus.respLayer1.utilization          0.2                       # Layer utilization (%)
system.cpu1.toL2Bus.respLayer0.occupancy       355284                       # Layer occupancy (ticks)
system.cpu1.toL2Bus.respLayer0.utilization          0.0                       # Layer utilization (%)
system.switch_cpus_10.pwrStateResidencyTicks::OFF  28337163693                       # Cumulative time (in ticks) in various power states
system.switch_cpus_10.dtb.walker.pwrStateResidencyTicks::UNDEFINED 1321688871309                       # Cumulative time (in ticks) in various power states
system.switch_cpus_10.itb.walker.pwrStateResidencyTicks::UNDEFINED 1321688871309                       # Cumulative time (in ticks) in various power states
system.switch_cpus_11.pwrStateResidencyTicks::OFF  28337163693                       # Cumulative time (in ticks) in various power states
system.switch_cpus_11.dtb.walker.pwrStateResidencyTicks::UNDEFINED 1321688871309                       # Cumulative time (in ticks) in various power states
system.switch_cpus_11.itb.walker.pwrStateResidencyTicks::UNDEFINED 1321688871309                       # Cumulative time (in ticks) in various power states
system.cpu_voltage_domain.voltage                   1                       # Voltage in Volts
system.switch_cpus1.numPwrStateTransitions            1                       # Number of power state transitions
system.switch_cpus1.pwrStateResidencyTicks::UNDEFINED 1293351707616                       # Cumulative time (in ticks) in various power states
system.switch_cpus1.pwrStateResidencyTicks::OFF  28337163693                       # Cumulative time (in ticks) in various power states
system.switch_cpus1.dtb.walker.pwrStateResidencyTicks::UNDEFINED 1321688871309                       # Cumulative time (in ticks) in various power states
system.switch_cpus1.itb.walker.pwrStateResidencyTicks::UNDEFINED 1321688871309                       # Cumulative time (in ticks) in various power states
system.mem_ctrls.pwrStateResidencyTicks::UNDEFINED 1321688871309                       # Cumulative time (in ticks) in various power states
system.mem_ctrls.bytes_read::.cpu0.inst            64                       # Number of bytes read from this memory
system.mem_ctrls.bytes_read::.cpu0.dcache.prefetcher      9165696                       # Number of bytes read from this memory
system.mem_ctrls.bytes_read::.cpu1.inst            64                       # Number of bytes read from this memory
system.mem_ctrls.bytes_read::.cpu1.data            64                       # Number of bytes read from this memory
system.mem_ctrls.bytes_read::.cpu1.dcache.prefetcher          896                       # Number of bytes read from this memory
system.mem_ctrls.bytes_read::.switch_cpus0.inst        78144                       # Number of bytes read from this memory
system.mem_ctrls.bytes_read::.switch_cpus0.data       278336                       # Number of bytes read from this memory
system.mem_ctrls.bytes_read::.switch_cpus1.inst        12672                       # Number of bytes read from this memory
system.mem_ctrls.bytes_read::.switch_cpus1.data        78784                       # Number of bytes read from this memory
system.mem_ctrls.bytes_read::.switch_cpus_10.inst       311680                       # Number of bytes read from this memory
system.mem_ctrls.bytes_read::.switch_cpus_10.data      8037120                       # Number of bytes read from this memory
system.mem_ctrls.bytes_read::.switch_cpus_11.inst         5504                       # Number of bytes read from this memory
system.mem_ctrls.bytes_read::.switch_cpus_11.data      1779840                       # Number of bytes read from this memory
system.mem_ctrls.bytes_read::total           19748864                       # Number of bytes read from this memory
system.mem_ctrls.bytes_inst_read::.cpu0.inst           64                       # Number of instructions bytes read from this memory
system.mem_ctrls.bytes_inst_read::.cpu1.inst           64                       # Number of instructions bytes read from this memory
system.mem_ctrls.bytes_inst_read::.switch_cpus0.inst        78144                       # Number of instructions bytes read from this memory
system.mem_ctrls.bytes_inst_read::.switch_cpus1.inst        12672                       # Number of instructions bytes read from this memory
system.mem_ctrls.bytes_inst_read::.switch_cpus_10.inst       311680                       # Number of instructions bytes read from this memory
system.mem_ctrls.bytes_inst_read::.switch_cpus_11.inst         5504                       # Number of instructions bytes read from this memory
system.mem_ctrls.bytes_inst_read::total        408128                       # Number of instructions bytes read from this memory
system.mem_ctrls.bytes_written::.cpu0.dcache.prefetcher      8017728                       # Number of bytes written to this memory
system.mem_ctrls.bytes_written::.switch_cpus0.data        47872                       # Number of bytes written to this memory
system.mem_ctrls.bytes_written::.switch_cpus1.data           64                       # Number of bytes written to this memory
system.mem_ctrls.bytes_written::.switch_cpus_10.data      6982336                       # Number of bytes written to this memory
system.mem_ctrls.bytes_written::total        15048000                       # Number of bytes written to this memory
system.mem_ctrls.num_reads::.cpu0.inst              1                       # Number of read requests responded to by this memory
system.mem_ctrls.num_reads::.cpu0.dcache.prefetcher       143214                       # Number of read requests responded to by this memory
system.mem_ctrls.num_reads::.cpu1.inst              1                       # Number of read requests responded to by this memory
system.mem_ctrls.num_reads::.cpu1.data              1                       # Number of read requests responded to by this memory
system.mem_ctrls.num_reads::.cpu1.dcache.prefetcher           14                       # Number of read requests responded to by this memory
system.mem_ctrls.num_reads::.switch_cpus0.inst         1221                       # Number of read requests responded to by this memory
system.mem_ctrls.num_reads::.switch_cpus0.data         4349                       # Number of read requests responded to by this memory
system.mem_ctrls.num_reads::.switch_cpus1.inst          198                       # Number of read requests responded to by this memory
system.mem_ctrls.num_reads::.switch_cpus1.data         1231                       # Number of read requests responded to by this memory
system.mem_ctrls.num_reads::.switch_cpus_10.inst         4870                       # Number of read requests responded to by this memory
system.mem_ctrls.num_reads::.switch_cpus_10.data       125580                       # Number of read requests responded to by this memory
system.mem_ctrls.num_reads::.switch_cpus_11.inst           86                       # Number of read requests responded to by this memory
system.mem_ctrls.num_reads::.switch_cpus_11.data        27810                       # Number of read requests responded to by this memory
system.mem_ctrls.num_reads::total              308576                       # Number of read requests responded to by this memory
system.mem_ctrls.num_writes::.cpu0.dcache.prefetcher       125277                       # Number of write requests responded to by this memory
system.mem_ctrls.num_writes::.switch_cpus0.data          748                       # Number of write requests responded to by this memory
system.mem_ctrls.num_writes::.switch_cpus1.data            1                       # Number of write requests responded to by this memory
system.mem_ctrls.num_writes::.switch_cpus_10.data       109099                       # Number of write requests responded to by this memory
system.mem_ctrls.num_writes::total             235125                       # Number of write requests responded to by this memory
system.mem_ctrls.bw_read::.cpu0.inst             2259                       # Total read bandwidth from this memory (bytes/s)
system.mem_ctrls.bw_read::.cpu0.dcache.prefetcher    323451426                       # Total read bandwidth from this memory (bytes/s)
system.mem_ctrls.bw_read::.cpu1.inst             2259                       # Total read bandwidth from this memory (bytes/s)
system.mem_ctrls.bw_read::.cpu1.data             2259                       # Total read bandwidth from this memory (bytes/s)
system.mem_ctrls.bw_read::.cpu1.dcache.prefetcher        31619                       # Total read bandwidth from this memory (bytes/s)
system.mem_ctrls.bw_read::.switch_cpus0.inst      2757651                       # Total read bandwidth from this memory (bytes/s)
system.mem_ctrls.bw_read::.switch_cpus0.data      9822296                       # Total read bandwidth from this memory (bytes/s)
system.mem_ctrls.bw_read::.switch_cpus1.inst       447187                       # Total read bandwidth from this memory (bytes/s)
system.mem_ctrls.bw_read::.switch_cpus1.data      2780236                       # Total read bandwidth from this memory (bytes/s)
system.mem_ctrls.bw_read::.switch_cpus_10.inst     10998984                       # Total read bandwidth from this memory (bytes/s)
system.mem_ctrls.bw_read::.switch_cpus_10.data    283624716                       # Total read bandwidth from this memory (bytes/s)
system.mem_ctrls.bw_read::.switch_cpus_11.inst       194233                       # Total read bandwidth from this memory (bytes/s)
system.mem_ctrls.bw_read::.switch_cpus_11.data     62809391                       # Total read bandwidth from this memory (bytes/s)
system.mem_ctrls.bw_read::total             696924513                       # Total read bandwidth from this memory (bytes/s)
system.mem_ctrls.bw_inst_read::.cpu0.inst         2259                       # Instruction read bandwidth from this memory (bytes/s)
system.mem_ctrls.bw_inst_read::.cpu1.inst         2259                       # Instruction read bandwidth from this memory (bytes/s)
system.mem_ctrls.bw_inst_read::.switch_cpus0.inst      2757651                       # Instruction read bandwidth from this memory (bytes/s)
system.mem_ctrls.bw_inst_read::.switch_cpus1.inst       447187                       # Instruction read bandwidth from this memory (bytes/s)
system.mem_ctrls.bw_inst_read::.switch_cpus_10.inst     10998984                       # Instruction read bandwidth from this memory (bytes/s)
system.mem_ctrls.bw_inst_read::.switch_cpus_11.inst       194233                       # Instruction read bandwidth from this memory (bytes/s)
system.mem_ctrls.bw_inst_read::total         14402571                       # Instruction read bandwidth from this memory (bytes/s)
system.mem_ctrls.bw_write::.cpu0.dcache.prefetcher    282940385                       # Write bandwidth from this memory (bytes/s)
system.mem_ctrls.bw_write::.switch_cpus0.data      1689372                       # Write bandwidth from this memory (bytes/s)
system.mem_ctrls.bw_write::.switch_cpus1.data         2259                       # Write bandwidth from this memory (bytes/s)
system.mem_ctrls.bw_write::.switch_cpus_10.data    246402077                       # Write bandwidth from this memory (bytes/s)
system.mem_ctrls.bw_write::total            531034092                       # Write bandwidth from this memory (bytes/s)
system.mem_ctrls.bw_total::.cpu0.inst            2259                       # Total bandwidth to/from this memory (bytes/s)
system.mem_ctrls.bw_total::.cpu0.dcache.prefetcher    606391811                       # Total bandwidth to/from this memory (bytes/s)
system.mem_ctrls.bw_total::.cpu1.inst            2259                       # Total bandwidth to/from this memory (bytes/s)
system.mem_ctrls.bw_total::.cpu1.data            2259                       # Total bandwidth to/from this memory (bytes/s)
system.mem_ctrls.bw_total::.cpu1.dcache.prefetcher        31619                       # Total bandwidth to/from this memory (bytes/s)
system.mem_ctrls.bw_total::.switch_cpus0.inst      2757651                       # Total bandwidth to/from this memory (bytes/s)
system.mem_ctrls.bw_total::.switch_cpus0.data     11511667                       # Total bandwidth to/from this memory (bytes/s)
system.mem_ctrls.bw_total::.switch_cpus1.inst       447187                       # Total bandwidth to/from this memory (bytes/s)
system.mem_ctrls.bw_total::.switch_cpus1.data      2782494                       # Total bandwidth to/from this memory (bytes/s)
system.mem_ctrls.bw_total::.switch_cpus_10.inst     10998984                       # Total bandwidth to/from this memory (bytes/s)
system.mem_ctrls.bw_total::.switch_cpus_10.data    530026793                       # Total bandwidth to/from this memory (bytes/s)
system.mem_ctrls.bw_total::.switch_cpus_11.inst       194233                       # Total bandwidth to/from this memory (bytes/s)
system.mem_ctrls.bw_total::.switch_cpus_11.data     62809391                       # Total bandwidth to/from this memory (bytes/s)
system.mem_ctrls.bw_total::total           1227958605                       # Total bandwidth to/from this memory (bytes/s)
system.cpu_clk_domain.clock                       417                       # Clock period in ticks

---------- End Simulation Statistics   ----------
