
---------- Begin Simulation Statistics ----------
final_tick                               1313790803322                       # Number of ticks from beginning of simulation (restored from checkpoints and never reset)
host_inst_rate                                 185974                       # Simulator instruction rate (inst/s)
host_mem_usage                                4459996                       # Number of bytes of host memory used
host_op_rate                                   302753                       # Simulator op (including micro ops) rate (op/s)
host_seconds                                   488.16                       # Real time elapsed on the host
host_tick_rate                               41869450                       # Simulator tick rate (ticks/s)
sim_freq                                 1000000000000                       # Frequency of simulated ticks
sim_insts                                    90785444                       # Number of instructions simulated
sim_ops                                     147792632                       # Number of ops (including micro ops) simulated
sim_seconds                                  0.020439                       # Number of seconds simulated
sim_ticks                                 20439095706                       # Number of ticks simulated
system.cpu0.committedInsts                          2                       # Number of instructions committed
system.cpu0.committedOps                            3                       # Number of ops (including micro ops) committed
system.cpu0.dtb.rdAccesses                          1                       # TLB accesses on read requests
system.cpu0.dtb.rdMisses                            0                       # TLB misses on read requests
system.cpu0.dtb.wrAccesses                          0                       # TLB accesses on write requests
system.cpu0.dtb.wrMisses                            0                       # TLB misses on write requests
system.cpu0.idle_fraction                           0                       # Percentage of idle cycles
system.cpu0.itb.rdAccesses                          0                       # TLB accesses on read requests
system.cpu0.itb.rdMisses                            0                       # TLB misses on read requests
system.cpu0.itb.wrAccesses                          3                       # TLB accesses on write requests
system.cpu0.itb.wrMisses                            0                       # TLB misses on write requests
system.cpu0.not_idle_fraction                       1                       # Percentage of non-idle cycles
system.cpu0.numCycles                               4                       # number of cpu cycles simulated
system.cpu0.numWorkItemsCompleted                   0                       # number of work items this cpu completed
system.cpu0.numWorkItemsStarted                     0                       # number of work items this cpu started
system.cpu0.num_busy_cycles                         4                       # Number of busy cycles
system.cpu0.num_cc_register_writes                  2                       # number of times the CC registers were written
system.cpu0.num_conditional_control_insts            0                       # number of instructions that are conditional controls
system.cpu0.num_fp_alu_accesses                     0                       # Number of float alu accesses
system.cpu0.num_fp_insts                            0                       # number of float instructions
system.cpu0.num_fp_register_reads                   0                       # number of times the floating registers were read
system.cpu0.num_fp_register_writes                  0                       # number of times the floating registers were written
system.cpu0.num_func_calls                          0                       # number of times a function call or return occured
system.cpu0.num_idle_cycles                         0                       # Number of idle cycles
system.cpu0.num_int_alu_accesses                    3                       # Number of integer alu accesses
system.cpu0.num_int_insts                           3                       # number of integer instructions
system.cpu0.num_int_register_reads                  7                       # number of times the integer registers were read
system.cpu0.num_int_register_writes                 3                       # number of times the integer registers were written
system.cpu0.num_load_insts                          1                       # Number of load instructions
system.cpu0.num_mem_refs                            1                       # number of memory refs
system.cpu0.num_store_insts                         0                       # Number of store instructions
system.cpu0.num_vec_alu_accesses                    0                       # Number of vector alu accesses
system.cpu0.num_vec_insts                           0                       # number of vector instructions
system.cpu0.num_vec_register_reads                  0                       # number of times the vector registers were read
system.cpu0.num_vec_register_writes                 0                       # number of times the vector registers were written
system.cpu0.op_class::No_OpClass                    0      0.00%      0.00% # Class of executed instruction
system.cpu0.op_class::IntAlu                        2     66.67%     66.67% # Class of executed instruction
system.cpu0.op_class::IntMult                       0      0.00%     66.67% # Class of executed instruction
system.cpu0.op_class::IntDiv                        0      0.00%     66.67% # Class of executed instruction
system.cpu0.op_class::FloatAdd                      0      0.00%     66.67% # Class of executed instruction
system.cpu0.op_class::FloatCmp                      0      0.00%     66.67% # Class of executed instruction
system.cpu0.op_class::FloatCvt                      0      0.00%     66.67% # Class of executed instruction
system.cpu0.op_class::FloatMult                     0      0.00%     66.67% # Class of executed instruction
system.cpu0.op_class::FloatMultAcc                  0      0.00%     66.67% # Class of executed instruction
system.cpu0.op_class::FloatDiv                      0      0.00%     66.67% # Class of executed instruction
system.cpu0.op_class::FloatMisc                     0      0.00%     66.67% # Class of executed instruction
system.cpu0.op_class::FloatSqrt                     0      0.00%     66.67% # Class of executed instruction
system.cpu0.op_class::SimdAdd                       0      0.00%     66.67% # Class of executed instruction
system.cpu0.op_class::SimdAddAcc                    0      0.00%     66.67% # Class of executed instruction
system.cpu0.op_class::SimdAlu                       0      0.00%     66.67% # Class of executed instruction
system.cpu0.op_class::SimdCmp                       0      0.00%     66.67% # Class of executed instruction
system.cpu0.op_class::SimdCvt                       0      0.00%     66.67% # Class of executed instruction
system.cpu0.op_class::SimdMisc                      0      0.00%     66.67% # Class of executed instruction
system.cpu0.op_class::SimdMult                      0      0.00%     66.67% # Class of executed instruction
system.cpu0.op_class::SimdMultAcc                   0      0.00%     66.67% # Class of executed instruction
system.cpu0.op_class::SimdShift                     0      0.00%     66.67% # Class of executed instruction
system.cpu0.op_class::SimdShiftAcc                  0      0.00%     66.67% # Class of executed instruction
system.cpu0.op_class::SimdDiv                       0      0.00%     66.67% # Class of executed instruction
system.cpu0.op_class::SimdSqrt                      0      0.00%     66.67% # Class of executed instruction
system.cpu0.op_class::SimdFloatAdd                  0      0.00%     66.67% # Class of executed instruction
system.cpu0.op_class::SimdFloatAlu                  0      0.00%     66.67% # Class of executed instruction
system.cpu0.op_class::SimdFloatCmp                  0      0.00%     66.67% # Class of executed instruction
system.cpu0.op_class::SimdFloatCvt                  0      0.00%     66.67% # Class of executed instruction
system.cpu0.op_class::SimdFloatDiv                  0      0.00%     66.67% # Class of executed instruction
system.cpu0.op_class::SimdFloatMisc                 0      0.00%     66.67% # Class of executed instruction
system.cpu0.op_class::SimdFloatMult                 0      0.00%     66.67% # Class of executed instruction
system.cpu0.op_class::SimdFloatMultAcc              0      0.00%     66.67% # Class of executed instruction
system.cpu0.op_class::SimdFloatSqrt                 0      0.00%     66.67% # Class of executed instruction
system.cpu0.op_class::SimdReduceAdd                 0      0.00%     66.67% # Class of executed instruction
system.cpu0.op_class::SimdReduceAlu                 0      0.00%     66.67% # Class of executed instruction
system.cpu0.op_class::SimdReduceCmp                 0      0.00%     66.67% # Class of executed instruction
system.cpu0.op_class::SimdFloatReduceAdd            0      0.00%     66.67% # Class of executed instruction
system.cpu0.op_class::SimdFloatReduceCmp            0      0.00%     66.67% # Class of executed instruction
system.cpu0.op_class::SimdAes                       0      0.00%     66.67% # Class of executed instruction
system.cpu0.op_class::SimdAesMix                    0      0.00%     66.67% # Class of executed instruction
system.cpu0.op_class::SimdSha1Hash                  0      0.00%     66.67% # Class of executed instruction
system.cpu0.op_class::SimdSha1Hash2                 0      0.00%     66.67% # Class of executed instruction
system.cpu0.op_class::SimdSha256Hash                0      0.00%     66.67% # Class of executed instruction
system.cpu0.op_class::SimdSha256Hash2               0      0.00%     66.67% # Class of executed instruction
system.cpu0.op_class::SimdShaSigma2                 0      0.00%     66.67% # Class of executed instruction
system.cpu0.op_class::SimdShaSigma3                 0      0.00%     66.67% # Class of executed instruction
system.cpu0.op_class::SimdPredAlu                   0      0.00%     66.67% # Class of executed instruction
system.cpu0.op_class::MemRead                       1     33.33%    100.00% # Class of executed instruction
system.cpu0.op_class::MemWrite                      0      0.00%    100.00% # Class of executed instruction
system.cpu0.op_class::FloatMemRead                  0      0.00%    100.00% # Class of executed instruction
system.cpu0.op_class::FloatMemWrite                 0      0.00%    100.00% # Class of executed instruction
system.cpu0.op_class::IprAccess                     0      0.00%    100.00% # Class of executed instruction
system.cpu0.op_class::InstPrefetch                  0      0.00%    100.00% # Class of executed instruction
system.cpu0.op_class::total                         3                       # Class of executed instruction
system.cpu0.toL2Bus.snoop_filter.hit_multi_requests          137                       # Number of requests hitting in the snoop filter with multiple (>1) holders of the requested data.
system.cpu0.toL2Bus.snoop_filter.hit_multi_snoops            0                       # Number of snoops hitting in the snoop filter with multiple (>1) holders of the requested data.
system.cpu0.toL2Bus.snoop_filter.hit_single_requests        49542                       # Number of requests hitting in the snoop filter with a single holder of the requested data.
system.cpu0.toL2Bus.snoop_filter.hit_single_snoops          568                       # Number of snoops hitting in the snoop filter with a single holder of the requested data.
system.cpu0.toL2Bus.snoop_filter.tot_requests       100098                       # Total number of requests made to the snoop filter.
system.cpu0.toL2Bus.snoop_filter.tot_snoops          568                       # Total number of snoops made to the snoop filter.
system.cpu0.toL3Bus.snoop_filter.hit_multi_requests            0                       # Number of requests hitting in the snoop filter with multiple (>1) holders of the requested data.
system.cpu0.toL3Bus.snoop_filter.hit_multi_snoops            0                       # Number of snoops hitting in the snoop filter with multiple (>1) holders of the requested data.
system.cpu0.toL3Bus.snoop_filter.hit_single_requests        15862                       # Number of requests hitting in the snoop filter with a single holder of the requested data.
system.cpu0.toL3Bus.snoop_filter.hit_single_snoops            0                       # Number of snoops hitting in the snoop filter with a single holder of the requested data.
system.cpu0.toL3Bus.snoop_filter.tot_requests        35941                       # Total number of requests made to the snoop filter.
system.cpu0.toL3Bus.snoop_filter.tot_snoops            0                       # Total number of snoops made to the snoop filter.
system.cpu0.workload.numSyscalls                    1                       # Number of system calls
system.cpu1.Branches                                1                       # Number of branches fetched
system.cpu1.committedInsts                          1                       # Number of instructions committed
system.cpu1.committedOps                            5                       # Number of ops (including micro ops) committed
system.cpu1.dtb.rdAccesses                          0                       # TLB accesses on read requests
system.cpu1.dtb.rdMisses                            0                       # TLB misses on read requests
system.cpu1.dtb.wrAccesses                          1                       # TLB accesses on write requests
system.cpu1.dtb.wrMisses                            0                       # TLB misses on write requests
system.cpu1.idle_fraction                           0                       # Percentage of idle cycles
system.cpu1.itb.rdAccesses                          0                       # TLB accesses on read requests
system.cpu1.itb.rdMisses                            0                       # TLB misses on read requests
system.cpu1.itb.wrAccesses                          2                       # TLB accesses on write requests
system.cpu1.itb.wrMisses                            0                       # TLB misses on write requests
system.cpu1.not_idle_fraction                       1                       # Percentage of non-idle cycles
system.cpu1.numCycles                               6                       # number of cpu cycles simulated
system.cpu1.numWorkItemsCompleted                   0                       # number of work items this cpu completed
system.cpu1.numWorkItemsStarted                     0                       # number of work items this cpu started
system.cpu1.num_busy_cycles                         6                       # Number of busy cycles
system.cpu1.num_conditional_control_insts            0                       # number of instructions that are conditional controls
system.cpu1.num_fp_alu_accesses                     0                       # Number of float alu accesses
system.cpu1.num_fp_insts                            0                       # number of float instructions
system.cpu1.num_fp_register_reads                   0                       # number of times the floating registers were read
system.cpu1.num_fp_register_writes                  0                       # number of times the floating registers were written
system.cpu1.num_func_calls                          1                       # number of times a function call or return occured
system.cpu1.num_idle_cycles                         0                       # Number of idle cycles
system.cpu1.num_int_alu_accesses                    5                       # Number of integer alu accesses
system.cpu1.num_int_insts                           5                       # number of integer instructions
system.cpu1.num_int_register_reads                  9                       # number of times the integer registers were read
system.cpu1.num_int_register_writes                 3                       # number of times the integer registers were written
system.cpu1.num_load_insts                          0                       # Number of load instructions
system.cpu1.num_mem_refs                            1                       # number of memory refs
system.cpu1.num_store_insts                         1                       # Number of store instructions
system.cpu1.num_vec_alu_accesses                    0                       # Number of vector alu accesses
system.cpu1.num_vec_insts                           0                       # number of vector instructions
system.cpu1.num_vec_register_reads                  0                       # number of times the vector registers were read
system.cpu1.num_vec_register_writes                 0                       # number of times the vector registers were written
system.cpu1.op_class::No_OpClass                    0      0.00%      0.00% # Class of executed instruction
system.cpu1.op_class::IntAlu                        4     80.00%     80.00% # Class of executed instruction
system.cpu1.op_class::IntMult                       0      0.00%     80.00% # Class of executed instruction
system.cpu1.op_class::IntDiv                        0      0.00%     80.00% # Class of executed instruction
system.cpu1.op_class::FloatAdd                      0      0.00%     80.00% # Class of executed instruction
system.cpu1.op_class::FloatCmp                      0      0.00%     80.00% # Class of executed instruction
system.cpu1.op_class::FloatCvt                      0      0.00%     80.00% # Class of executed instruction
system.cpu1.op_class::FloatMult                     0      0.00%     80.00% # Class of executed instruction
system.cpu1.op_class::FloatMultAcc                  0      0.00%     80.00% # Class of executed instruction
system.cpu1.op_class::FloatDiv                      0      0.00%     80.00% # Class of executed instruction
system.cpu1.op_class::FloatMisc                     0      0.00%     80.00% # Class of executed instruction
system.cpu1.op_class::FloatSqrt                     0      0.00%     80.00% # Class of executed instruction
system.cpu1.op_class::SimdAdd                       0      0.00%     80.00% # Class of executed instruction
system.cpu1.op_class::SimdAddAcc                    0      0.00%     80.00% # Class of executed instruction
system.cpu1.op_class::SimdAlu                       0      0.00%     80.00% # Class of executed instruction
system.cpu1.op_class::SimdCmp                       0      0.00%     80.00% # Class of executed instruction
system.cpu1.op_class::SimdCvt                       0      0.00%     80.00% # Class of executed instruction
system.cpu1.op_class::SimdMisc                      0      0.00%     80.00% # Class of executed instruction
system.cpu1.op_class::SimdMult                      0      0.00%     80.00% # Class of executed instruction
system.cpu1.op_class::SimdMultAcc                   0      0.00%     80.00% # Class of executed instruction
system.cpu1.op_class::SimdShift                     0      0.00%     80.00% # Class of executed instruction
system.cpu1.op_class::SimdShiftAcc                  0      0.00%     80.00% # Class of executed instruction
system.cpu1.op_class::SimdDiv                       0      0.00%     80.00% # Class of executed instruction
system.cpu1.op_class::SimdSqrt                      0      0.00%     80.00% # Class of executed instruction
system.cpu1.op_class::SimdFloatAdd                  0      0.00%     80.00% # Class of executed instruction
system.cpu1.op_class::SimdFloatAlu                  0      0.00%     80.00% # Class of executed instruction
system.cpu1.op_class::SimdFloatCmp                  0      0.00%     80.00% # Class of executed instruction
system.cpu1.op_class::SimdFloatCvt                  0      0.00%     80.00% # Class of executed instruction
system.cpu1.op_class::SimdFloatDiv                  0      0.00%     80.00% # Class of executed instruction
system.cpu1.op_class::SimdFloatMisc                 0      0.00%     80.00% # Class of executed instruction
system.cpu1.op_class::SimdFloatMult                 0      0.00%     80.00% # Class of executed instruction
system.cpu1.op_class::SimdFloatMultAcc              0      0.00%     80.00% # Class of executed instruction
system.cpu1.op_class::SimdFloatSqrt                 0      0.00%     80.00% # Class of executed instruction
system.cpu1.op_class::SimdReduceAdd                 0      0.00%     80.00% # Class of executed instruction
system.cpu1.op_class::SimdReduceAlu                 0      0.00%     80.00% # Class of executed instruction
system.cpu1.op_class::SimdReduceCmp                 0      0.00%     80.00% # Class of executed instruction
system.cpu1.op_class::SimdFloatReduceAdd            0      0.00%     80.00% # Class of executed instruction
system.cpu1.op_class::SimdFloatReduceCmp            0      0.00%     80.00% # Class of executed instruction
system.cpu1.op_class::SimdAes                       0      0.00%     80.00% # Class of executed instruction
system.cpu1.op_class::SimdAesMix                    0      0.00%     80.00% # Class of executed instruction
system.cpu1.op_class::SimdSha1Hash                  0      0.00%     80.00% # Class of executed instruction
system.cpu1.op_class::SimdSha1Hash2                 0      0.00%     80.00% # Class of executed instruction
system.cpu1.op_class::SimdSha256Hash                0      0.00%     80.00% # Class of executed instruction
system.cpu1.op_class::SimdSha256Hash2               0      0.00%     80.00% # Class of executed instruction
system.cpu1.op_class::SimdShaSigma2                 0      0.00%     80.00% # Class of executed instruction
system.cpu1.op_class::SimdShaSigma3                 0      0.00%     80.00% # Class of executed instruction
system.cpu1.op_class::SimdPredAlu                   0      0.00%     80.00% # Class of executed instruction
system.cpu1.op_class::MemRead                       0      0.00%     80.00% # Class of executed instruction
system.cpu1.op_class::MemWrite                      1     20.00%    100.00% # Class of executed instruction
system.cpu1.op_class::FloatMemRead                  0      0.00%    100.00% # Class of executed instruction
system.cpu1.op_class::FloatMemWrite                 0      0.00%    100.00% # Class of executed instruction
system.cpu1.op_class::IprAccess                     0      0.00%    100.00% # Class of executed instruction
system.cpu1.op_class::InstPrefetch                  0      0.00%    100.00% # Class of executed instruction
system.cpu1.op_class::total                         5                       # Class of executed instruction
system.cpu1.toL2Bus.snoop_filter.hit_multi_requests           33                       # Number of requests hitting in the snoop filter with multiple (>1) holders of the requested data.
system.cpu1.toL2Bus.snoop_filter.hit_multi_snoops            0                       # Number of snoops hitting in the snoop filter with multiple (>1) holders of the requested data.
system.cpu1.toL2Bus.snoop_filter.hit_single_requests        43924                       # Number of requests hitting in the snoop filter with a single holder of the requested data.
system.cpu1.toL2Bus.snoop_filter.hit_single_snoops          333                       # Number of snoops hitting in the snoop filter with a single holder of the requested data.
system.cpu1.toL2Bus.snoop_filter.tot_requests        88645                       # Total number of requests made to the snoop filter.
system.cpu1.toL2Bus.snoop_filter.tot_snoops          333                       # Total number of snoops made to the snoop filter.
system.cpu1.toL3Bus.snoop_filter.hit_multi_requests            0                       # Number of requests hitting in the snoop filter with multiple (>1) holders of the requested data.
system.cpu1.toL3Bus.snoop_filter.hit_multi_snoops            0                       # Number of snoops hitting in the snoop filter with multiple (>1) holders of the requested data.
system.cpu1.toL3Bus.snoop_filter.hit_single_requests        19585                       # Number of requests hitting in the snoop filter with a single holder of the requested data.
system.cpu1.toL3Bus.snoop_filter.hit_single_snoops            7                       # Number of snoops hitting in the snoop filter with a single holder of the requested data.
system.cpu1.toL3Bus.snoop_filter.tot_requests        43589                       # Total number of requests made to the snoop filter.
system.cpu1.toL3Bus.snoop_filter.tot_snoops            7                       # Total number of snoops made to the snoop filter.
system.cpu1.workload.numSyscalls                13249                       # Number of system calls
system.membus.snoop_filter.hit_multi_requests            0                       # Number of requests hitting in the snoop filter with multiple (>1) holders of the requested data.
system.membus.snoop_filter.hit_multi_snoops            0                       # Number of snoops hitting in the snoop filter with multiple (>1) holders of the requested data.
system.membus.snoop_filter.hit_single_requests            3                       # Number of requests hitting in the snoop filter with a single holder of the requested data.
system.membus.snoop_filter.hit_single_snoops            0                       # Number of snoops hitting in the snoop filter with a single holder of the requested data.
system.membus.snoop_filter.tot_requests         43831                       # Total number of requests made to the snoop filter.
system.membus.snoop_filter.tot_snoops               0                       # Total number of snoops made to the snoop filter.
system.switch_cpus0.Branches                    15658                       # Number of branches fetched
system.switch_cpus0.committedInsts             943296                       # Number of instructions committed
system.switch_cpus0.committedOps              1663954                       # Number of ops (including micro ops) committed
system.switch_cpus0.dtb.rdAccesses             355870                       # TLB accesses on read requests
system.switch_cpus0.dtb.rdMisses                   68                       # TLB misses on read requests
system.switch_cpus0.dtb.wrAccesses             102816                       # TLB accesses on write requests
system.switch_cpus0.dtb.wrMisses                    4                       # TLB misses on write requests
system.switch_cpus0.idle_fraction            0.000000                       # Percentage of idle cycles
system.switch_cpus0.itb.rdAccesses                  0                       # TLB accesses on read requests
system.switch_cpus0.itb.rdMisses                    0                       # TLB misses on read requests
system.switch_cpus0.itb.wrAccesses            1230314                       # TLB accesses on write requests
system.switch_cpus0.itb.wrMisses                    3                       # TLB misses on write requests
system.switch_cpus0.not_idle_fraction        1.000000                       # Percentage of non-idle cycles
system.switch_cpus0.numCycles                 5562716                       # number of cpu cycles simulated
system.switch_cpus0.numWorkItemsCompleted            0                       # number of work items this cpu completed
system.switch_cpus0.numWorkItemsStarted             0                       # number of work items this cpu started
system.switch_cpus0.num_busy_cycles      5562715.319054                       # Number of busy cycles
system.switch_cpus0.num_cc_register_reads       106470                       # number of times the CC registers were read
system.switch_cpus0.num_cc_register_writes       922752                       # number of times the CC registers were written
system.switch_cpus0.num_conditional_control_insts        11188                       # number of instructions that are conditional controls
system.switch_cpus0.num_fp_alu_accesses          7599                       # Number of float alu accesses
system.switch_cpus0.num_fp_insts                 7599                       # number of float instructions
system.switch_cpus0.num_fp_register_reads         8940                       # number of times the floating registers were read
system.switch_cpus0.num_fp_register_writes         6258                       # number of times the floating registers were written
system.switch_cpus0.num_func_calls               2682                       # number of times a function call or return occured
system.switch_cpus0.num_idle_cycles          0.680946                       # Number of idle cycles
system.switch_cpus0.num_int_alu_accesses      1659037                       # Number of integer alu accesses
system.switch_cpus0.num_int_insts             1659037                       # number of integer instructions
system.switch_cpus0.num_int_register_reads      3852701                       # number of times the integer registers were read
system.switch_cpus0.num_int_register_writes      1714019                       # number of times the integer registers were written
system.switch_cpus0.num_load_insts             355846                       # Number of load instructions
system.switch_cpus0.num_mem_refs               458662                       # number of memory refs
system.switch_cpus0.num_store_insts            102816                       # Number of store instructions
system.switch_cpus0.num_vec_alu_accesses            0                       # Number of vector alu accesses
system.switch_cpus0.num_vec_insts                   0                       # number of vector instructions
system.switch_cpus0.num_vec_register_reads            0                       # number of times the vector registers were read
system.switch_cpus0.num_vec_register_writes            0                       # number of times the vector registers were written
system.switch_cpus0.op_class::No_OpClass         1341      0.08%      0.08% # Class of executed instruction
system.switch_cpus0.op_class::IntAlu          1024237     61.55%     61.63% # Class of executed instruction
system.switch_cpus0.op_class::IntMult          175691     10.56%     72.19% # Class of executed instruction
system.switch_cpus0.op_class::IntDiv                0      0.00%     72.19% # Class of executed instruction
system.switch_cpus0.op_class::FloatAdd            894      0.05%     72.25% # Class of executed instruction
system.switch_cpus0.op_class::FloatCmp              0      0.00%     72.25% # Class of executed instruction
system.switch_cpus0.op_class::FloatCvt              0      0.00%     72.25% # Class of executed instruction
system.switch_cpus0.op_class::FloatMult             0      0.00%     72.25% # Class of executed instruction
system.switch_cpus0.op_class::FloatMultAcc            0      0.00%     72.25% # Class of executed instruction
system.switch_cpus0.op_class::FloatDiv              0      0.00%     72.25% # Class of executed instruction
system.switch_cpus0.op_class::FloatMisc             0      0.00%     72.25% # Class of executed instruction
system.switch_cpus0.op_class::FloatSqrt             0      0.00%     72.25% # Class of executed instruction
system.switch_cpus0.op_class::SimdAdd               0      0.00%     72.25% # Class of executed instruction
system.switch_cpus0.op_class::SimdAddAcc            0      0.00%     72.25% # Class of executed instruction
system.switch_cpus0.op_class::SimdAlu               0      0.00%     72.25% # Class of executed instruction
system.switch_cpus0.op_class::SimdCmp               0      0.00%     72.25% # Class of executed instruction
system.switch_cpus0.op_class::SimdCvt               0      0.00%     72.25% # Class of executed instruction
system.switch_cpus0.op_class::SimdMisc            447      0.03%     72.27% # Class of executed instruction
system.switch_cpus0.op_class::SimdMult              0      0.00%     72.27% # Class of executed instruction
system.switch_cpus0.op_class::SimdMultAcc            0      0.00%     72.27% # Class of executed instruction
system.switch_cpus0.op_class::SimdShift             0      0.00%     72.27% # Class of executed instruction
system.switch_cpus0.op_class::SimdShiftAcc            0      0.00%     72.27% # Class of executed instruction
system.switch_cpus0.op_class::SimdDiv               0      0.00%     72.27% # Class of executed instruction
system.switch_cpus0.op_class::SimdSqrt              0      0.00%     72.27% # Class of executed instruction
system.switch_cpus0.op_class::SimdFloatAdd         1341      0.08%     72.35% # Class of executed instruction
system.switch_cpus0.op_class::SimdFloatAlu            0      0.00%     72.35% # Class of executed instruction
system.switch_cpus0.op_class::SimdFloatCmp            0      0.00%     72.35% # Class of executed instruction
system.switch_cpus0.op_class::SimdFloatCvt          447      0.03%     72.38% # Class of executed instruction
system.switch_cpus0.op_class::SimdFloatDiv            0      0.00%     72.38% # Class of executed instruction
system.switch_cpus0.op_class::SimdFloatMisc            0      0.00%     72.38% # Class of executed instruction
system.switch_cpus0.op_class::SimdFloatMult          894      0.05%     72.44% # Class of executed instruction
system.switch_cpus0.op_class::SimdFloatMultAcc            0      0.00%     72.44% # Class of executed instruction
system.switch_cpus0.op_class::SimdFloatSqrt            0      0.00%     72.44% # Class of executed instruction
system.switch_cpus0.op_class::SimdReduceAdd            0      0.00%     72.44% # Class of executed instruction
system.switch_cpus0.op_class::SimdReduceAlu            0      0.00%     72.44% # Class of executed instruction
system.switch_cpus0.op_class::SimdReduceCmp            0      0.00%     72.44% # Class of executed instruction
system.switch_cpus0.op_class::SimdFloatReduceAdd            0      0.00%     72.44% # Class of executed instruction
system.switch_cpus0.op_class::SimdFloatReduceCmp            0      0.00%     72.44% # Class of executed instruction
system.switch_cpus0.op_class::SimdAes               0      0.00%     72.44% # Class of executed instruction
system.switch_cpus0.op_class::SimdAesMix            0      0.00%     72.44% # Class of executed instruction
system.switch_cpus0.op_class::SimdSha1Hash            0      0.00%     72.44% # Class of executed instruction
system.switch_cpus0.op_class::SimdSha1Hash2            0      0.00%     72.44% # Class of executed instruction
system.switch_cpus0.op_class::SimdSha256Hash            0      0.00%     72.44% # Class of executed instruction
system.switch_cpus0.op_class::SimdSha256Hash2            0      0.00%     72.44% # Class of executed instruction
system.switch_cpus0.op_class::SimdShaSigma2            0      0.00%     72.44% # Class of executed instruction
system.switch_cpus0.op_class::SimdShaSigma3            0      0.00%     72.44% # Class of executed instruction
system.switch_cpus0.op_class::SimdPredAlu            0      0.00%     72.44% # Class of executed instruction
system.switch_cpus0.op_class::MemRead          353164     21.22%     93.66% # Class of executed instruction
system.switch_cpus0.op_class::MemWrite         101922      6.13%     99.79% # Class of executed instruction
system.switch_cpus0.op_class::FloatMemRead         2682      0.16%     99.95% # Class of executed instruction
system.switch_cpus0.op_class::FloatMemWrite          894      0.05%    100.00% # Class of executed instruction
system.switch_cpus0.op_class::IprAccess             0      0.00%    100.00% # Class of executed instruction
system.switch_cpus0.op_class::InstPrefetch            0      0.00%    100.00% # Class of executed instruction
system.switch_cpus0.op_class::total           1663954                       # Class of executed instruction
system.switch_cpus1.Branches                   224834                       # Number of branches fetched
system.switch_cpus1.committedInsts            1000001                       # Number of instructions committed
system.switch_cpus1.committedOps              2024684                       # Number of ops (including micro ops) committed
system.switch_cpus1.dtb.rdAccesses             291888                       # TLB accesses on read requests
system.switch_cpus1.dtb.rdMisses                   40                       # TLB misses on read requests
system.switch_cpus1.dtb.wrAccesses             213202                       # TLB accesses on write requests
system.switch_cpus1.dtb.wrMisses                    3                       # TLB misses on write requests
system.switch_cpus1.idle_fraction            0.000000                       # Percentage of idle cycles
system.switch_cpus1.itb.rdAccesses                  0                       # TLB accesses on read requests
system.switch_cpus1.itb.rdMisses                    0                       # TLB misses on read requests
system.switch_cpus1.itb.wrAccesses            1267697                       # TLB accesses on write requests
system.switch_cpus1.itb.wrMisses                   27                       # TLB misses on write requests
system.switch_cpus1.not_idle_fraction        1.000000                       # Percentage of non-idle cycles
system.switch_cpus1.numCycles                 5562716                       # number of cpu cycles simulated
system.switch_cpus1.numWorkItemsCompleted            0                       # number of work items this cpu completed
system.switch_cpus1.numWorkItemsStarted             0                       # number of work items this cpu started
system.switch_cpus1.num_busy_cycles      5562715.319054                       # Number of busy cycles
system.switch_cpus1.num_cc_register_reads       839766                       # number of times the CC registers were read
system.switch_cpus1.num_cc_register_writes       449805                       # number of times the CC registers were written
system.switch_cpus1.num_conditional_control_insts       102459                       # number of instructions that are conditional controls
system.switch_cpus1.num_fp_alu_accesses         16406                       # Number of float alu accesses
system.switch_cpus1.num_fp_insts                16406                       # number of float instructions
system.switch_cpus1.num_fp_register_reads        27540                       # number of times the floating registers were read
system.switch_cpus1.num_fp_register_writes        14430                       # number of times the floating registers were written
system.switch_cpus1.num_func_calls             106054                       # number of times a function call or return occured
system.switch_cpus1.num_idle_cycles          0.680946                       # Number of idle cycles
system.switch_cpus1.num_int_alu_accesses      2003876                       # Number of integer alu accesses
system.switch_cpus1.num_int_insts             2003876                       # number of integer instructions
system.switch_cpus1.num_int_register_reads      4247890                       # number of times the integer registers were read
system.switch_cpus1.num_int_register_writes      1572123                       # number of times the integer registers were written
system.switch_cpus1.num_load_insts             291886                       # Number of load instructions
system.switch_cpus1.num_mem_refs               505086                       # number of memory refs
system.switch_cpus1.num_store_insts            213200                       # Number of store instructions
system.switch_cpus1.num_vec_alu_accesses            0                       # Number of vector alu accesses
system.switch_cpus1.num_vec_insts                   0                       # number of vector instructions
system.switch_cpus1.num_vec_register_reads            0                       # number of times the vector registers were read
system.switch_cpus1.num_vec_register_writes            0                       # number of times the vector registers were written
system.switch_cpus1.op_class::No_OpClass         6797      0.34%      0.34% # Class of executed instruction
system.switch_cpus1.op_class::IntAlu          1497763     73.98%     74.31% # Class of executed instruction
system.switch_cpus1.op_class::IntMult             941      0.05%     74.36% # Class of executed instruction
system.switch_cpus1.op_class::IntDiv             2289      0.11%     74.47% # Class of executed instruction
system.switch_cpus1.op_class::FloatAdd            654      0.03%     74.50% # Class of executed instruction
system.switch_cpus1.op_class::FloatCmp              0      0.00%     74.50% # Class of executed instruction
system.switch_cpus1.op_class::FloatCvt              0      0.00%     74.50% # Class of executed instruction
system.switch_cpus1.op_class::FloatMult             0      0.00%     74.50% # Class of executed instruction
system.switch_cpus1.op_class::FloatMultAcc            0      0.00%     74.50% # Class of executed instruction
system.switch_cpus1.op_class::FloatDiv              0      0.00%     74.50% # Class of executed instruction
system.switch_cpus1.op_class::FloatMisc             0      0.00%     74.50% # Class of executed instruction
system.switch_cpus1.op_class::FloatSqrt             0      0.00%     74.50% # Class of executed instruction
system.switch_cpus1.op_class::SimdAdd               0      0.00%     74.50% # Class of executed instruction
system.switch_cpus1.op_class::SimdAddAcc            0      0.00%     74.50% # Class of executed instruction
system.switch_cpus1.op_class::SimdAlu            2624      0.13%     74.63% # Class of executed instruction
system.switch_cpus1.op_class::SimdCmp               0      0.00%     74.63% # Class of executed instruction
system.switch_cpus1.op_class::SimdCvt            2630      0.13%     74.76% # Class of executed instruction
system.switch_cpus1.op_class::SimdMisc           5900      0.29%     75.05% # Class of executed instruction
system.switch_cpus1.op_class::SimdMult              0      0.00%     75.05% # Class of executed instruction
system.switch_cpus1.op_class::SimdMultAcc            0      0.00%     75.05% # Class of executed instruction
system.switch_cpus1.op_class::SimdShift             0      0.00%     75.05% # Class of executed instruction
system.switch_cpus1.op_class::SimdShiftAcc            0      0.00%     75.05% # Class of executed instruction
system.switch_cpus1.op_class::SimdDiv               0      0.00%     75.05% # Class of executed instruction
system.switch_cpus1.op_class::SimdSqrt              0      0.00%     75.05% # Class of executed instruction
system.switch_cpus1.op_class::SimdFloatAdd            0      0.00%     75.05% # Class of executed instruction
system.switch_cpus1.op_class::SimdFloatAlu            0      0.00%     75.05% # Class of executed instruction
system.switch_cpus1.op_class::SimdFloatCmp            0      0.00%     75.05% # Class of executed instruction
system.switch_cpus1.op_class::SimdFloatCvt            0      0.00%     75.05% # Class of executed instruction
system.switch_cpus1.op_class::SimdFloatDiv            0      0.00%     75.05% # Class of executed instruction
system.switch_cpus1.op_class::SimdFloatMisc            0      0.00%     75.05% # Class of executed instruction
system.switch_cpus1.op_class::SimdFloatMult            0      0.00%     75.05% # Class of executed instruction
system.switch_cpus1.op_class::SimdFloatMultAcc            0      0.00%     75.05% # Class of executed instruction
system.switch_cpus1.op_class::SimdFloatSqrt            0      0.00%     75.05% # Class of executed instruction
system.switch_cpus1.op_class::SimdReduceAdd            0      0.00%     75.05% # Class of executed instruction
system.switch_cpus1.op_class::SimdReduceAlu            0      0.00%     75.05% # Class of executed instruction
system.switch_cpus1.op_class::SimdReduceCmp            0      0.00%     75.05% # Class of executed instruction
system.switch_cpus1.op_class::SimdFloatReduceAdd            0      0.00%     75.05% # Class of executed instruction
system.switch_cpus1.op_class::SimdFloatReduceCmp            0      0.00%     75.05% # Class of executed instruction
system.switch_cpus1.op_class::SimdAes               0      0.00%     75.05% # Class of executed instruction
system.switch_cpus1.op_class::SimdAesMix            0      0.00%     75.05% # Class of executed instruction
system.switch_cpus1.op_class::SimdSha1Hash            0      0.00%     75.05% # Class of executed instruction
system.switch_cpus1.op_class::SimdSha1Hash2            0      0.00%     75.05% # Class of executed instruction
system.switch_cpus1.op_class::SimdSha256Hash            0      0.00%     75.05% # Class of executed instruction
system.switch_cpus1.op_class::SimdSha256Hash2            0      0.00%     75.05% # Class of executed instruction
system.switch_cpus1.op_class::SimdShaSigma2            0      0.00%     75.05% # Class of executed instruction
system.switch_cpus1.op_class::SimdShaSigma3            0      0.00%     75.05% # Class of executed instruction
system.switch_cpus1.op_class::SimdPredAlu            0      0.00%     75.05% # Class of executed instruction
system.switch_cpus1.op_class::MemRead          289904     14.32%     89.37% # Class of executed instruction
system.switch_cpus1.op_class::MemWrite         212546     10.50%     99.87% # Class of executed instruction
system.switch_cpus1.op_class::FloatMemRead         1982      0.10%     99.97% # Class of executed instruction
system.switch_cpus1.op_class::FloatMemWrite          654      0.03%    100.00% # Class of executed instruction
system.switch_cpus1.op_class::IprAccess             0      0.00%    100.00% # Class of executed instruction
system.switch_cpus1.op_class::InstPrefetch            0      0.00%    100.00% # Class of executed instruction
system.switch_cpus1.op_class::total           2024684                       # Class of executed instruction
system.switch_cpus_10.branchPred.BTBCorrect            0                       # Number of correct BTB predictions (this stat may not work properly.
system.switch_cpus_10.branchPred.BTBHitPct     0.000000                       # BTB Hit Percentage
system.switch_cpus_10.branchPred.BTBHits            0                       # Number of BTB hits
system.switch_cpus_10.branchPred.BTBLookups      1120625                       # Number of BTB lookups
system.switch_cpus_10.branchPred.RASInCorrect            7                       # Number of incorrect RAS predictions.
system.switch_cpus_10.branchPred.condIncorrect       112826                       # Number of conditional branches incorrect
system.switch_cpus_10.branchPred.condPredicted       947000                       # Number of conditional branches predicted
system.switch_cpus_10.branchPred.indirectHits       685554                       # Number of indirect target hits.
system.switch_cpus_10.branchPred.indirectLookups      1120625                       # Number of indirect predictor lookups.
system.switch_cpus_10.branchPred.indirectMisses       435071                       # Number of indirect misses.
system.switch_cpus_10.branchPred.lookups      1405448                       # Number of BP lookups
system.switch_cpus_10.branchPred.usedRAS       218237                       # Number of times the RAS was used to get a target.
system.switch_cpus_10.branchPredindirectMispredicted        97136                       # Number of mispredicted indirect branches.
system.switch_cpus_10.cc_regfile_reads       15104811                       # number of cc regfile reads
system.switch_cpus_10.cc_regfile_writes      44082191                       # number of cc regfile writes
system.switch_cpus_10.commit.amos                   0                       # Number of atomic instructions committed
system.switch_cpus_10.commit.branchMispredicts       112826                       # The number of times a branch was mispredicted
system.switch_cpus_10.commit.branches         1075473                       # Number of branches committed
system.switch_cpus_10.commit.bw_lim_events      2094843                       # number cycles where commit BW limit reached
system.switch_cpus_10.commit.commitNonSpecStalls           71                       # The number of times commit has been forced to stall to communicate backwards
system.switch_cpus_10.commit.commitSquashedInsts      3729773                       # The number of squashed insts skipped by commit
system.switch_cpus_10.commit.committedInsts     50000002                       # Number of instructions committed
system.switch_cpus_10.commit.committedOps     65409074                       # Number of ops (including micro ops) committed
system.switch_cpus_10.commit.committed_per_cycle::samples     42738365                       # Number of insts commited each cycle
system.switch_cpus_10.commit.committed_per_cycle::mean     1.530453                       # Number of insts commited each cycle
system.switch_cpus_10.commit.committed_per_cycle::stdev     1.929618                       # Number of insts commited each cycle
system.switch_cpus_10.commit.committed_per_cycle::underflows            0      0.00%      0.00% # Number of insts commited each cycle
system.switch_cpus_10.commit.committed_per_cycle::0     12985373     30.38%     30.38% # Number of insts commited each cycle
system.switch_cpus_10.commit.committed_per_cycle::1     16461226     38.52%     68.90% # Number of insts commited each cycle
system.switch_cpus_10.commit.committed_per_cycle::2      5770232     13.50%     82.40% # Number of insts commited each cycle
system.switch_cpus_10.commit.committed_per_cycle::3      3017956      7.06%     89.46% # Number of insts commited each cycle
system.switch_cpus_10.commit.committed_per_cycle::4      1290303      3.02%     92.48% # Number of insts commited each cycle
system.switch_cpus_10.commit.committed_per_cycle::5       578981      1.35%     93.84% # Number of insts commited each cycle
system.switch_cpus_10.commit.committed_per_cycle::6       237502      0.56%     94.39% # Number of insts commited each cycle
system.switch_cpus_10.commit.committed_per_cycle::7       301949      0.71%     95.10% # Number of insts commited each cycle
system.switch_cpus_10.commit.committed_per_cycle::8      2094843      4.90%    100.00% # Number of insts commited each cycle
system.switch_cpus_10.commit.committed_per_cycle::overflows            0      0.00%    100.00% # Number of insts commited each cycle
system.switch_cpus_10.commit.committed_per_cycle::min_value            0                       # Number of insts commited each cycle
system.switch_cpus_10.commit.committed_per_cycle::max_value            8                       # Number of insts commited each cycle
system.switch_cpus_10.commit.committed_per_cycle::total     42738365                       # Number of insts commited each cycle
system.switch_cpus_10.commit.fp_insts           67366                       # Number of committed floating point instructions.
system.switch_cpus_10.commit.function_calls       188735                       # Number of function calls committed.
system.switch_cpus_10.commit.int_insts       65356222                       # Number of committed integer instructions.
system.switch_cpus_10.commit.loads           10781810                       # Number of loads committed
system.switch_cpus_10.commit.membars                0                       # Number of memory barriers committed
system.switch_cpus_10.commit.op_class_0::No_OpClass        21847      0.03%      0.03% # Class of committed instruction
system.switch_cpus_10.commit.op_class_0::IntAlu     48792360     74.60%     74.63% # Class of committed instruction
system.switch_cpus_10.commit.op_class_0::IntMult       583341      0.89%     75.52% # Class of committed instruction
system.switch_cpus_10.commit.op_class_0::IntDiv           28      0.00%     75.52% # Class of committed instruction
system.switch_cpus_10.commit.op_class_0::FloatAdd        10210      0.02%     75.54% # Class of committed instruction
system.switch_cpus_10.commit.op_class_0::FloatCmp            0      0.00%     75.54% # Class of committed instruction
system.switch_cpus_10.commit.op_class_0::FloatCvt            0      0.00%     75.54% # Class of committed instruction
system.switch_cpus_10.commit.op_class_0::FloatMult            0      0.00%     75.54% # Class of committed instruction
system.switch_cpus_10.commit.op_class_0::FloatMultAcc            0      0.00%     75.54% # Class of committed instruction
system.switch_cpus_10.commit.op_class_0::FloatDiv            0      0.00%     75.54% # Class of committed instruction
system.switch_cpus_10.commit.op_class_0::FloatMisc            0      0.00%     75.54% # Class of committed instruction
system.switch_cpus_10.commit.op_class_0::FloatSqrt            0      0.00%     75.54% # Class of committed instruction
system.switch_cpus_10.commit.op_class_0::SimdAdd            0      0.00%     75.54% # Class of committed instruction
system.switch_cpus_10.commit.op_class_0::SimdAddAcc            0      0.00%     75.54% # Class of committed instruction
system.switch_cpus_10.commit.op_class_0::SimdAlu          538      0.00%     75.54% # Class of committed instruction
system.switch_cpus_10.commit.op_class_0::SimdCmp          170      0.00%     75.54% # Class of committed instruction
system.switch_cpus_10.commit.op_class_0::SimdCvt          696      0.00%     75.54% # Class of committed instruction
system.switch_cpus_10.commit.op_class_0::SimdMisc         5716      0.01%     75.55% # Class of committed instruction
system.switch_cpus_10.commit.op_class_0::SimdMult            0      0.00%     75.55% # Class of committed instruction
system.switch_cpus_10.commit.op_class_0::SimdMultAcc            0      0.00%     75.55% # Class of committed instruction
system.switch_cpus_10.commit.op_class_0::SimdShift            0      0.00%     75.55% # Class of committed instruction
system.switch_cpus_10.commit.op_class_0::SimdShiftAcc            0      0.00%     75.55% # Class of committed instruction
system.switch_cpus_10.commit.op_class_0::SimdDiv            0      0.00%     75.55% # Class of committed instruction
system.switch_cpus_10.commit.op_class_0::SimdSqrt            0      0.00%     75.55% # Class of committed instruction
system.switch_cpus_10.commit.op_class_0::SimdFloatAdd         7062      0.01%     75.56% # Class of committed instruction
system.switch_cpus_10.commit.op_class_0::SimdFloatAlu            0      0.00%     75.56% # Class of committed instruction
system.switch_cpus_10.commit.op_class_0::SimdFloatCmp            2      0.00%     75.56% # Class of committed instruction
system.switch_cpus_10.commit.op_class_0::SimdFloatCvt         4936      0.01%     75.57% # Class of committed instruction
system.switch_cpus_10.commit.op_class_0::SimdFloatDiv           12      0.00%     75.57% # Class of committed instruction
system.switch_cpus_10.commit.op_class_0::SimdFloatMisc            0      0.00%     75.57% # Class of committed instruction
system.switch_cpus_10.commit.op_class_0::SimdFloatMult         5704      0.01%     75.57% # Class of committed instruction
system.switch_cpus_10.commit.op_class_0::SimdFloatMultAcc            0      0.00%     75.57% # Class of committed instruction
system.switch_cpus_10.commit.op_class_0::SimdFloatSqrt            0      0.00%     75.57% # Class of committed instruction
system.switch_cpus_10.commit.op_class_0::SimdReduceAdd            0      0.00%     75.57% # Class of committed instruction
system.switch_cpus_10.commit.op_class_0::SimdReduceAlu            0      0.00%     75.57% # Class of committed instruction
system.switch_cpus_10.commit.op_class_0::SimdReduceCmp            0      0.00%     75.57% # Class of committed instruction
system.switch_cpus_10.commit.op_class_0::SimdFloatReduceAdd            0      0.00%     75.57% # Class of committed instruction
system.switch_cpus_10.commit.op_class_0::SimdFloatReduceCmp            0      0.00%     75.57% # Class of committed instruction
system.switch_cpus_10.commit.op_class_0::SimdAes            0      0.00%     75.57% # Class of committed instruction
system.switch_cpus_10.commit.op_class_0::SimdAesMix            0      0.00%     75.57% # Class of committed instruction
system.switch_cpus_10.commit.op_class_0::SimdSha1Hash            0      0.00%     75.57% # Class of committed instruction
system.switch_cpus_10.commit.op_class_0::SimdSha1Hash2            0      0.00%     75.57% # Class of committed instruction
system.switch_cpus_10.commit.op_class_0::SimdSha256Hash            0      0.00%     75.57% # Class of committed instruction
system.switch_cpus_10.commit.op_class_0::SimdSha256Hash2            0      0.00%     75.57% # Class of committed instruction
system.switch_cpus_10.commit.op_class_0::SimdShaSigma2            0      0.00%     75.57% # Class of committed instruction
system.switch_cpus_10.commit.op_class_0::SimdShaSigma3            0      0.00%     75.57% # Class of committed instruction
system.switch_cpus_10.commit.op_class_0::SimdPredAlu            0      0.00%     75.57% # Class of committed instruction
system.switch_cpus_10.commit.op_class_0::MemRead     10761631     16.45%     92.03% # Class of committed instruction
system.switch_cpus_10.commit.op_class_0::MemWrite      5182840      7.92%     99.95% # Class of committed instruction
system.switch_cpus_10.commit.op_class_0::FloatMemRead        20179      0.03%     99.98% # Class of committed instruction
system.switch_cpus_10.commit.op_class_0::FloatMemWrite        11802      0.02%    100.00% # Class of committed instruction
system.switch_cpus_10.commit.op_class_0::IprAccess            0      0.00%    100.00% # Class of committed instruction
system.switch_cpus_10.commit.op_class_0::InstPrefetch            0      0.00%    100.00% # Class of committed instruction
system.switch_cpus_10.commit.op_class_0::total     65409074                       # Class of committed instruction
system.switch_cpus_10.commit.refs            15976452                       # Number of memory references committed
system.switch_cpus_10.commit.swp_count              0                       # Number of s/w prefetches committed
system.switch_cpus_10.commit.vec_insts              0                       # Number of committed Vector instructions.
system.switch_cpus_10.committedInsts         50000002                       # Number of Instructions Simulated
system.switch_cpus_10.committedOps           65409074                       # Number of Ops (including micro ops) Simulated
system.switch_cpus_10.cpi                    0.869038                       # CPI: Cycles Per Instruction
system.switch_cpus_10.cpi_total              0.869038                       # CPI: Total CPI of All Threads
system.switch_cpus_10.decode.BlockedCycles     29849312                       # Number of cycles decode is blocked
system.switch_cpus_10.decode.DecodedInsts     70506425                       # Number of instructions handled by decode
system.switch_cpus_10.decode.IdleCycles       4039596                       # Number of cycles decode is idle
system.switch_cpus_10.decode.RunCycles        3820787                       # Number of cycles decode is running
system.switch_cpus_10.decode.SquashCycles       118612                       # Number of cycles decode is squashing
system.switch_cpus_10.decode.UnblockCycles      5448550                       # Number of cycles decode is unblocking
system.switch_cpus_10.dtb.rdAccesses         11184886                       # TLB accesses on read requests
system.switch_cpus_10.dtb.rdMisses               3945                       # TLB misses on read requests
system.switch_cpus_10.dtb.wrAccesses          5491062                       # TLB accesses on write requests
system.switch_cpus_10.dtb.wrMisses               1402                       # TLB misses on write requests
system.switch_cpus_10.fetch.Branches          1405448                       # Number of branches that fetch encountered
system.switch_cpus_10.fetch.CacheLines        3824211                       # Number of cache lines fetched
system.switch_cpus_10.fetch.Cycles           35093412                       # Number of cycles fetch has run and was not squashing or blocked
system.switch_cpus_10.fetch.IcacheSquashes        49954                       # Number of outstanding Icache misses that were squashed
system.switch_cpus_10.fetch.IcacheWaitRetryStallCycles          145                       # Number of stall cycles due to full MSHR
system.switch_cpus_10.fetch.Insts            54161029                       # Number of instructions fetch has processed
system.switch_cpus_10.fetch.MiscStallCycles            8                       # Number of cycles fetch has spent waiting on interrupts, or bad addresses, or out of MSHRs
system.switch_cpus_10.fetch.PendingTrapStallCycles            1                       # Number of stall cycles due to pending traps
system.switch_cpus_10.fetch.SquashCycles       237224                       # Number of cycles fetch has spent squashing
system.switch_cpus_10.fetch.branchRate       0.032345                       # Number of branch fetches per cycle
system.switch_cpus_10.fetch.icacheStallCycles      8064693                       # Number of cycles fetch is stalled on an Icache miss
system.switch_cpus_10.fetch.predictedBranches       903791                       # Number of branches that fetch has predicted taken
system.switch_cpus_10.fetch.rate             1.246460                       # Number of inst fetches per cycle
system.switch_cpus_10.fetch.rateDist::samples     43276871                       # Number of instructions fetched each cycle (Total)
system.switch_cpus_10.fetch.rateDist::mean     1.666993                       # Number of instructions fetched each cycle (Total)
system.switch_cpus_10.fetch.rateDist::stdev     3.023241                       # Number of instructions fetched each cycle (Total)
system.switch_cpus_10.fetch.rateDist::underflows            0      0.00%      0.00% # Number of instructions fetched each cycle (Total)
system.switch_cpus_10.fetch.rateDist::0      31810449     73.50%     73.50% # Number of instructions fetched each cycle (Total)
system.switch_cpus_10.fetch.rateDist::1        643064      1.49%     74.99% # Number of instructions fetched each cycle (Total)
system.switch_cpus_10.fetch.rateDist::2        673561      1.56%     76.55% # Number of instructions fetched each cycle (Total)
system.switch_cpus_10.fetch.rateDist::3        635388      1.47%     78.02% # Number of instructions fetched each cycle (Total)
system.switch_cpus_10.fetch.rateDist::4        795938      1.84%     79.85% # Number of instructions fetched each cycle (Total)
system.switch_cpus_10.fetch.rateDist::5        765006      1.77%     81.62% # Number of instructions fetched each cycle (Total)
system.switch_cpus_10.fetch.rateDist::6        866050      2.00%     83.62% # Number of instructions fetched each cycle (Total)
system.switch_cpus_10.fetch.rateDist::7        658526      1.52%     85.14% # Number of instructions fetched each cycle (Total)
system.switch_cpus_10.fetch.rateDist::8       6428889     14.86%    100.00% # Number of instructions fetched each cycle (Total)
system.switch_cpus_10.fetch.rateDist::overflows            0      0.00%    100.00% # Number of instructions fetched each cycle (Total)
system.switch_cpus_10.fetch.rateDist::min_value            0                       # Number of instructions fetched each cycle (Total)
system.switch_cpus_10.fetch.rateDist::max_value            8                       # Number of instructions fetched each cycle (Total)
system.switch_cpus_10.fetch.rateDist::total     43276871                       # Number of instructions fetched each cycle (Total)
system.switch_cpus_10.fp_regfile_reads         155415                       # number of floating regfile reads
system.switch_cpus_10.fp_regfile_writes        134103                       # number of floating regfile writes
system.switch_cpus_10.idleCycles               175025                       # Total number of cycles that the CPU has spent unscheduled due to idling
system.switch_cpus_10.iew.branchMispredicts       135316                       # Number of branch mispredicts detected at execute
system.switch_cpus_10.iew.exec_branches       1156658                       # Number of branches executed
system.switch_cpus_10.iew.exec_nop                  0                       # number of nop insts executed
system.switch_cpus_10.iew.exec_rate          1.548318                       # Inst execution rate
system.switch_cpus_10.iew.exec_refs          16678222                       # number of memory reference insts executed
system.switch_cpus_10.iew.exec_stores         5487376                       # Number of stores executed
system.switch_cpus_10.iew.exec_swp                  0                       # number of swp insts executed
system.switch_cpus_10.iew.iewBlockCycles      3534979                       # Number of cycles IEW is blocking
system.switch_cpus_10.iew.iewDispLoadInsts     11422265                       # Number of dispatched load instructions
system.switch_cpus_10.iew.iewDispNonSpecInsts            9                       # Number of dispatched non-speculative instructions
system.switch_cpus_10.iew.iewDispSquashedInsts        76488                       # Number of squashed instructions skipped by dispatch
system.switch_cpus_10.iew.iewDispStoreInsts      5724110                       # Number of dispatched store instructions
system.switch_cpus_10.iew.iewDispatchedInsts     69195911                       # Number of instructions dispatched to IQ
system.switch_cpus_10.iew.iewExecLoadInsts     11190846                       # Number of load instructions executed
system.switch_cpus_10.iew.iewExecSquashedInsts       104946                       # Number of squashed instructions skipped in execute
system.switch_cpus_10.iew.iewExecutedInsts     67277368                       # Number of executed instructions
system.switch_cpus_10.iew.iewIQFullEvents        97928                       # Number of times the IQ has become full, causing a stall
system.switch_cpus_10.iew.iewIdleCycles             0                       # Number of cycles IEW is idle
system.switch_cpus_10.iew.iewLSQFullEvents       208899                       # Number of times the LSQ has become full, causing a stall
system.switch_cpus_10.iew.iewSquashCycles       118612                       # Number of cycles IEW is squashing
system.switch_cpus_10.iew.iewUnblockCycles       311905                       # Number of cycles IEW is unblocking
system.switch_cpus_10.iew.lsq.thread0.blockedLoads            0                       # Number of blocked loads due to partial load-store forwarding
system.switch_cpus_10.iew.lsq.thread0.cacheBlocked          782                       # Number of times an access to memory failed due to the cache being blocked
system.switch_cpus_10.iew.lsq.thread0.forwLoads       583429                       # Number of loads that had data forwarded from stores
system.switch_cpus_10.iew.lsq.thread0.ignoredResponses          785                       # Number of memory responses ignored because the instruction is squashed
system.switch_cpus_10.iew.lsq.thread0.invAddrLoads            0                       # Number of loads ignored due to an invalid address
system.switch_cpus_10.iew.lsq.thread0.invAddrSwpfs            0                       # Number of software prefetches ignored due to an invalid address
system.switch_cpus_10.iew.lsq.thread0.memOrderViolation         1921                       # Number of memory ordering violations
system.switch_cpus_10.iew.lsq.thread0.rescheduledLoads          486                       # Number of loads that were rescheduled
system.switch_cpus_10.iew.lsq.thread0.squashedLoads       640435                       # Number of loads squashed
system.switch_cpus_10.iew.lsq.thread0.squashedStores       529465                       # Number of stores squashed
system.switch_cpus_10.iew.memOrderViolationEvents         1921                       # Number of memory order violations
system.switch_cpus_10.iew.predictedNotTakenIncorrect        92808                       # Number of branches that were predicted not taken incorrectly
system.switch_cpus_10.iew.predictedTakenIncorrect        42508                       # Number of branches that were predicted taken incorrectly
system.switch_cpus_10.iew.wb_consumers      107157807                       # num instructions consuming a value
system.switch_cpus_10.iew.wb_count           67074845                       # cumulative count of insts written-back
system.switch_cpus_10.iew.wb_fanout          0.514049                       # average fanout of values written-back
system.switch_cpus_10.iew.wb_producers       55084413                       # num instructions producing a value
system.switch_cpus_10.iew.wb_rate            1.543657                       # insts written-back per cycle
system.switch_cpus_10.iew.wb_sent            67147564                       # cumulative count of insts sent to commit
system.switch_cpus_10.int_regfile_reads     140329529                       # number of integer regfile reads
system.switch_cpus_10.int_regfile_writes     60867533                       # number of integer regfile writes
system.switch_cpus_10.ipc                    1.150698                       # IPC: Instructions Per Cycle
system.switch_cpus_10.ipc_total              1.150698                       # IPC: Total IPC of All Threads
system.switch_cpus_10.iq.FU_type_0::No_OpClass       100042      0.15%      0.15% # Type of FU issued
system.switch_cpus_10.iq.FU_type_0::IntAlu     49929983     74.10%     74.25% # Type of FU issued
system.switch_cpus_10.iq.FU_type_0::IntMult       597446      0.89%     75.13% # Type of FU issued
system.switch_cpus_10.iq.FU_type_0::IntDiv           49      0.00%     75.13% # Type of FU issued
system.switch_cpus_10.iq.FU_type_0::FloatAdd        10829      0.02%     75.15% # Type of FU issued
system.switch_cpus_10.iq.FU_type_0::FloatCmp            0      0.00%     75.15% # Type of FU issued
system.switch_cpus_10.iq.FU_type_0::FloatCvt            0      0.00%     75.15% # Type of FU issued
system.switch_cpus_10.iq.FU_type_0::FloatMult            0      0.00%     75.15% # Type of FU issued
system.switch_cpus_10.iq.FU_type_0::FloatMultAcc            0      0.00%     75.15% # Type of FU issued
system.switch_cpus_10.iq.FU_type_0::FloatDiv            0      0.00%     75.15% # Type of FU issued
system.switch_cpus_10.iq.FU_type_0::FloatMisc            0      0.00%     75.15% # Type of FU issued
system.switch_cpus_10.iq.FU_type_0::FloatSqrt            0      0.00%     75.15% # Type of FU issued
system.switch_cpus_10.iq.FU_type_0::SimdAdd            0      0.00%     75.15% # Type of FU issued
system.switch_cpus_10.iq.FU_type_0::SimdAddAcc            0      0.00%     75.15% # Type of FU issued
system.switch_cpus_10.iq.FU_type_0::SimdAlu          626      0.00%     75.15% # Type of FU issued
system.switch_cpus_10.iq.FU_type_0::SimdCmp          176      0.00%     75.15% # Type of FU issued
system.switch_cpus_10.iq.FU_type_0::SimdCvt          877      0.00%     75.15% # Type of FU issued
system.switch_cpus_10.iq.FU_type_0::SimdMisc         5796      0.01%     75.16% # Type of FU issued
system.switch_cpus_10.iq.FU_type_0::SimdMult            0      0.00%     75.16% # Type of FU issued
system.switch_cpus_10.iq.FU_type_0::SimdMultAcc            0      0.00%     75.16% # Type of FU issued
system.switch_cpus_10.iq.FU_type_0::SimdShift            0      0.00%     75.16% # Type of FU issued
system.switch_cpus_10.iq.FU_type_0::SimdShiftAcc            0      0.00%     75.16% # Type of FU issued
system.switch_cpus_10.iq.FU_type_0::SimdDiv            0      0.00%     75.16% # Type of FU issued
system.switch_cpus_10.iq.FU_type_0::SimdSqrt            0      0.00%     75.16% # Type of FU issued
system.switch_cpus_10.iq.FU_type_0::SimdFloatAdd         7119      0.01%     75.17% # Type of FU issued
system.switch_cpus_10.iq.FU_type_0::SimdFloatAlu            0      0.00%     75.17% # Type of FU issued
system.switch_cpus_10.iq.FU_type_0::SimdFloatCmp            2      0.00%     75.17% # Type of FU issued
system.switch_cpus_10.iq.FU_type_0::SimdFloatCvt         4979      0.01%     75.18% # Type of FU issued
system.switch_cpus_10.iq.FU_type_0::SimdFloatDiv           18      0.00%     75.18% # Type of FU issued
system.switch_cpus_10.iq.FU_type_0::SimdFloatMisc            0      0.00%     75.18% # Type of FU issued
system.switch_cpus_10.iq.FU_type_0::SimdFloatMult         5722      0.01%     75.19% # Type of FU issued
system.switch_cpus_10.iq.FU_type_0::SimdFloatMultAcc            0      0.00%     75.19% # Type of FU issued
system.switch_cpus_10.iq.FU_type_0::SimdFloatSqrt            0      0.00%     75.19% # Type of FU issued
system.switch_cpus_10.iq.FU_type_0::SimdReduceAdd            0      0.00%     75.19% # Type of FU issued
system.switch_cpus_10.iq.FU_type_0::SimdReduceAlu            0      0.00%     75.19% # Type of FU issued
system.switch_cpus_10.iq.FU_type_0::SimdReduceCmp            0      0.00%     75.19% # Type of FU issued
system.switch_cpus_10.iq.FU_type_0::SimdFloatReduceAdd            0      0.00%     75.19% # Type of FU issued
system.switch_cpus_10.iq.FU_type_0::SimdFloatReduceCmp            0      0.00%     75.19% # Type of FU issued
system.switch_cpus_10.iq.FU_type_0::SimdAes            0      0.00%     75.19% # Type of FU issued
system.switch_cpus_10.iq.FU_type_0::SimdAesMix            0      0.00%     75.19% # Type of FU issued
system.switch_cpus_10.iq.FU_type_0::SimdSha1Hash            0      0.00%     75.19% # Type of FU issued
system.switch_cpus_10.iq.FU_type_0::SimdSha1Hash2            0      0.00%     75.19% # Type of FU issued
system.switch_cpus_10.iq.FU_type_0::SimdSha256Hash            0      0.00%     75.19% # Type of FU issued
system.switch_cpus_10.iq.FU_type_0::SimdSha256Hash2            0      0.00%     75.19% # Type of FU issued
system.switch_cpus_10.iq.FU_type_0::SimdShaSigma2            0      0.00%     75.19% # Type of FU issued
system.switch_cpus_10.iq.FU_type_0::SimdShaSigma3            0      0.00%     75.19% # Type of FU issued
system.switch_cpus_10.iq.FU_type_0::SimdPredAlu            0      0.00%     75.19% # Type of FU issued
system.switch_cpus_10.iq.FU_type_0::MemRead     11115799     16.50%     91.68% # Type of FU issued
system.switch_cpus_10.iq.FU_type_0::MemWrite      5401611      8.02%     99.70% # Type of FU issued
system.switch_cpus_10.iq.FU_type_0::FloatMemRead       105864      0.16%     99.86% # Type of FU issued
system.switch_cpus_10.iq.FU_type_0::FloatMemWrite        95377      0.14%    100.00% # Type of FU issued
system.switch_cpus_10.iq.FU_type_0::IprAccess            0      0.00%    100.00% # Type of FU issued
system.switch_cpus_10.iq.FU_type_0::InstPrefetch            0      0.00%    100.00% # Type of FU issued
system.switch_cpus_10.iq.FU_type_0::total     67382315                       # Type of FU issued
system.switch_cpus_10.iq.fp_alu_accesses       273549                       # Number of floating point alu accesses
system.switch_cpus_10.iq.fp_inst_queue_reads       512403                       # Number of floating instruction queue reads
system.switch_cpus_10.iq.fp_inst_queue_wakeup_accesses       234260                       # Number of floating instruction queue wakeup accesses
system.switch_cpus_10.iq.fp_inst_queue_writes       429226                       # Number of floating instruction queue writes
system.switch_cpus_10.iq.fu_busy_cnt           398158                       # FU busy when requested
system.switch_cpus_10.iq.fu_busy_rate        0.005909                       # FU busy rate (busy events/executed inst)
system.switch_cpus_10.iq.fu_full::No_OpClass            0      0.00%      0.00% # attempts to use FU when none available
system.switch_cpus_10.iq.fu_full::IntAlu       231311     58.10%     58.10% # attempts to use FU when none available
system.switch_cpus_10.iq.fu_full::IntMult            0      0.00%     58.10% # attempts to use FU when none available
system.switch_cpus_10.iq.fu_full::IntDiv            0      0.00%     58.10% # attempts to use FU when none available
system.switch_cpus_10.iq.fu_full::FloatAdd            0      0.00%     58.10% # attempts to use FU when none available
system.switch_cpus_10.iq.fu_full::FloatCmp            0      0.00%     58.10% # attempts to use FU when none available
system.switch_cpus_10.iq.fu_full::FloatCvt            0      0.00%     58.10% # attempts to use FU when none available
system.switch_cpus_10.iq.fu_full::FloatMult            0      0.00%     58.10% # attempts to use FU when none available
system.switch_cpus_10.iq.fu_full::FloatMultAcc            0      0.00%     58.10% # attempts to use FU when none available
system.switch_cpus_10.iq.fu_full::FloatDiv            0      0.00%     58.10% # attempts to use FU when none available
system.switch_cpus_10.iq.fu_full::FloatMisc            0      0.00%     58.10% # attempts to use FU when none available
system.switch_cpus_10.iq.fu_full::FloatSqrt            0      0.00%     58.10% # attempts to use FU when none available
system.switch_cpus_10.iq.fu_full::SimdAdd            0      0.00%     58.10% # attempts to use FU when none available
system.switch_cpus_10.iq.fu_full::SimdAddAcc            0      0.00%     58.10% # attempts to use FU when none available
system.switch_cpus_10.iq.fu_full::SimdAlu           25      0.01%     58.10% # attempts to use FU when none available
system.switch_cpus_10.iq.fu_full::SimdCmp            1      0.00%     58.10% # attempts to use FU when none available
system.switch_cpus_10.iq.fu_full::SimdCvt           26      0.01%     58.11% # attempts to use FU when none available
system.switch_cpus_10.iq.fu_full::SimdMisc           17      0.00%     58.11% # attempts to use FU when none available
system.switch_cpus_10.iq.fu_full::SimdMult            0      0.00%     58.11% # attempts to use FU when none available
system.switch_cpus_10.iq.fu_full::SimdMultAcc            0      0.00%     58.11% # attempts to use FU when none available
system.switch_cpus_10.iq.fu_full::SimdShift            0      0.00%     58.11% # attempts to use FU when none available
system.switch_cpus_10.iq.fu_full::SimdShiftAcc            0      0.00%     58.11% # attempts to use FU when none available
system.switch_cpus_10.iq.fu_full::SimdDiv            0      0.00%     58.11% # attempts to use FU when none available
system.switch_cpus_10.iq.fu_full::SimdSqrt            0      0.00%     58.11% # attempts to use FU when none available
system.switch_cpus_10.iq.fu_full::SimdFloatAdd            0      0.00%     58.11% # attempts to use FU when none available
system.switch_cpus_10.iq.fu_full::SimdFloatAlu            0      0.00%     58.11% # attempts to use FU when none available
system.switch_cpus_10.iq.fu_full::SimdFloatCmp            0      0.00%     58.11% # attempts to use FU when none available
system.switch_cpus_10.iq.fu_full::SimdFloatCvt            0      0.00%     58.11% # attempts to use FU when none available
system.switch_cpus_10.iq.fu_full::SimdFloatDiv            0      0.00%     58.11% # attempts to use FU when none available
system.switch_cpus_10.iq.fu_full::SimdFloatMisc            0      0.00%     58.11% # attempts to use FU when none available
system.switch_cpus_10.iq.fu_full::SimdFloatMult            0      0.00%     58.11% # attempts to use FU when none available
[...]
system.cpu1.l2cache.ReadSharedReq_avg_miss_latency::total 69961.336864                       # average ReadSharedReq miss latency
system.cpu1.l2cache.ReadSharedReq_mshr_misses::.switch_cpus1.data         1210                       # number of ReadSharedReq MSHR misses
system.cpu1.l2cache.ReadSharedReq_mshr_misses::.switch_cpus_11.data        22485                       # number of ReadSharedReq MSHR misses
system.cpu1.l2cache.ReadSharedReq_mshr_misses::total        23695                       # number of ReadSharedReq MSHR misses
system.cpu1.l2cache.ReadSharedReq_mshr_miss_latency::.switch_cpus1.data     84095556                       # number of ReadSharedReq MSHR miss cycles
system.cpu1.l2cache.ReadSharedReq_mshr_miss_latency::.switch_cpus_11.data   1563757506                       # number of ReadSharedReq MSHR miss cycles
system.cpu1.l2cache.ReadSharedReq_mshr_miss_latency::total   1647853062                       # number of ReadSharedReq MSHR miss cycles
system.cpu1.l2cache.ReadSharedReq_mshr_miss_rate::.switch_cpus1.data     0.932922                       # mshr miss rate for ReadSharedReq accesses
system.cpu1.l2cache.ReadSharedReq_mshr_miss_rate::.switch_cpus_11.data     0.522688                       # mshr miss rate for ReadSharedReq accesses
system.cpu1.l2cache.ReadSharedReq_mshr_miss_rate::total     0.534695                       # mshr miss rate for ReadSharedReq accesses
system.cpu1.l2cache.ReadSharedReq_avg_mshr_miss_latency::.switch_cpus1.data 69500.459504                       # average ReadSharedReq mshr miss latency
system.cpu1.l2cache.ReadSharedReq_avg_mshr_miss_latency::.switch_cpus_11.data 69546.698065                       # average ReadSharedReq mshr miss latency
system.cpu1.l2cache.ReadSharedReq_avg_mshr_miss_latency::total 69544.336864                       # average ReadSharedReq mshr miss latency
system.cpu1.l2cache.tags.pwrStateResidencyTicks::UNDEFINED 1313790803322                       # Cumulative time (in ticks) in various power states
system.cpu1.l2cache.tags.tagsinuse          56.053742                       # Cycle average of tags in use
system.cpu1.l2cache.tags.total_refs             88610                       # Total number of references to valid blocks.
system.cpu1.l2cache.tags.sampled_refs           24005                       # Sample count of references to valid blocks.
system.cpu1.l2cache.tags.avg_refs            3.691314                       # Average number of references to valid blocks.
system.cpu1.l2cache.tags.warmup_cycle    1293351708033                       # Cycle when the warmup percentage was hit.
system.cpu1.l2cache.tags.occ_blocks::.cpu1.inst     0.003613                       # Average occupied blocks per requestor
system.cpu1.l2cache.tags.occ_blocks::.cpu1.data     0.015557                       # Average occupied blocks per requestor
system.cpu1.l2cache.tags.occ_blocks::.switch_cpus1.inst     0.676796                       # Average occupied blocks per requestor
system.cpu1.l2cache.tags.occ_blocks::.switch_cpus1.data     8.992304                       # Average occupied blocks per requestor
system.cpu1.l2cache.tags.occ_blocks::.switch_cpus_11.inst     0.174120                       # Average occupied blocks per requestor
system.cpu1.l2cache.tags.occ_blocks::.switch_cpus_11.data    46.191352                       # Average occupied blocks per requestor
system.cpu1.l2cache.tags.occ_percent::.cpu1.inst     0.000001                       # Average percentage of cache occupancy
system.cpu1.l2cache.tags.occ_percent::.cpu1.data     0.000004                       # Average percentage of cache occupancy
system.cpu1.l2cache.tags.occ_percent::.switch_cpus1.inst     0.000165                       # Average percentage of cache occupancy
system.cpu1.l2cache.tags.occ_percent::.switch_cpus1.data     0.002195                       # Average percentage of cache occupancy
system.cpu1.l2cache.tags.occ_percent::.switch_cpus_11.inst     0.000043                       # Average percentage of cache occupancy
system.cpu1.l2cache.tags.occ_percent::.switch_cpus_11.data     0.011277                       # Average percentage of cache occupancy
system.cpu1.l2cache.tags.occ_percent::total     0.013685                       # Average percentage of cache occupancy
system.cpu1.l2cache.tags.occ_task_id_blocks::1024         4096                       # Occupied blocks per task id
system.cpu1.l2cache.tags.age_task_id_blocks_1024::0           15                       # Occupied blocks per task id
system.cpu1.l2cache.tags.age_task_id_blocks_1024::1          155                       # Occupied blocks per task id
system.cpu1.l2cache.tags.age_task_id_blocks_1024::2          768                       # Occupied blocks per task id
system.cpu1.l2cache.tags.age_task_id_blocks_1024::3         2649                       # Occupied blocks per task id
system.cpu1.l2cache.tags.age_task_id_blocks_1024::4          509                       # Occupied blocks per task id
system.cpu1.l2cache.tags.occ_task_id_percent::1024            1                       # Percentage of cache occupancy per task id
system.cpu1.l2cache.tags.tag_accesses         1441797                       # Number of tag accesses
system.cpu1.l2cache.tags.data_accesses        1441797                       # Number of data accesses
system.cpu1.toL2Bus.pwrStateResidencyTicks::UNDEFINED 1313790803322                       # Cumulative time (in ticks) in various power states
system.cpu1.toL2Bus.trans_dist::ReadResp        44600                       # Transaction distribution
system.cpu1.toL2Bus.trans_dist::WritebackDirty          149                       # Transaction distribution
system.cpu1.toL2Bus.trans_dist::CleanEvict        63691                       # Transaction distribution
system.cpu1.toL2Bus.trans_dist::ReadExReq          121                       # Transaction distribution
system.cpu1.toL2Bus.trans_dist::ReadExResp          121                       # Transaction distribution
system.cpu1.toL2Bus.trans_dist::ReadCleanReq          285                       # Transaction distribution
system.cpu1.toL2Bus.trans_dist::ReadSharedReq        44315                       # Transaction distribution
system.cpu1.toL2Bus.pkt_count_system.cpu1.icache.mem_side::system.cpu1.l2cache.cpu_side          570                       # Packet count per connected master and slave (bytes)
system.cpu1.toL2Bus.pkt_count_system.cpu1.dcache.mem_side::system.cpu1.l2cache.cpu_side       132796                       # Packet count per connected master and slave (bytes)
system.cpu1.toL2Bus.pkt_count::total           133366                       # Packet count per connected master and slave (bytes)
system.cpu1.toL2Bus.pkt_size_system.cpu1.icache.mem_side::system.cpu1.l2cache.cpu_side        18240                       # Cumulative packet size per connected master and slave (bytes)
system.cpu1.toL2Bus.pkt_size_system.cpu1.dcache.mem_side::system.cpu1.l2cache.cpu_side      2852992                       # Cumulative packet size per connected master and slave (bytes)
system.cpu1.toL2Bus.pkt_size::total           2871232                       # Cumulative packet size per connected master and slave (bytes)
system.cpu1.toL2Bus.snoops                      19916                       # Total snoops (count)
system.cpu1.toL2Bus.snoopTraffic                  448                       # Total snoop traffic (bytes)
system.cpu1.toL2Bus.snoop_fanout::samples        64637                       # Request fanout histogram
system.cpu1.toL2Bus.snoop_fanout::mean       0.005662                       # Request fanout histogram
system.cpu1.toL2Bus.snoop_fanout::stdev      0.075036                       # Request fanout histogram
system.cpu1.toL2Bus.snoop_fanout::underflows            0      0.00%      0.00% # Request fanout histogram
system.cpu1.toL2Bus.snoop_fanout::0             64271     99.43%     99.43% # Request fanout histogram
system.cpu1.toL2Bus.snoop_fanout::1               366      0.57%    100.00% # Request fanout histogram
system.cpu1.toL2Bus.snoop_fanout::2                 0      0.00%    100.00% # Request fanout histogram
system.cpu1.toL2Bus.snoop_fanout::3                 0      0.00%    100.00% # Request fanout histogram
system.cpu1.toL2Bus.snoop_fanout::4                 0      0.00%    100.00% # Request fanout histogram
system.cpu1.toL2Bus.snoop_fanout::overflows            0      0.00%    100.00% # Request fanout histogram
system.cpu1.toL2Bus.snoop_fanout::min_value            0                       # Request fanout histogram
system.cpu1.toL2Bus.snoop_fanout::max_value            1                       # Request fanout histogram
system.cpu1.toL2Bus.snoop_fanout::total         64637                       # Request fanout histogram
system.cpu1.toL2Bus.reqLayer0.occupancy      37082559                       # Layer occupancy (ticks)
system.cpu1.toL2Bus.reqLayer0.utilization          0.2                       # Layer utilization (%)
system.cpu1.toL2Bus.respLayer1.occupancy     55588185                       # Layer occupancy (ticks)
system.cpu1.toL2Bus.respLayer1.utilization          0.3                       # Layer utilization (%)
system.cpu1.toL2Bus.respLayer0.occupancy       355284                       # Layer occupancy (ticks)
system.cpu1.toL2Bus.respLayer0.utilization          0.0                       # Layer utilization (%)
system.switch_cpus_10.pwrStateResidencyTicks::OFF  20439095706                       # Cumulative time (in ticks) in various power states
system.switch_cpus_10.dtb.walker.pwrStateResidencyTicks::UNDEFINED 1313790803322                       # Cumulative time (in ticks) in various power states
system.switch_cpus_10.itb.walker.pwrStateResidencyTicks::UNDEFINED 1313790803322                       # Cumulative time (in ticks) in various power states
system.switch_cpus_11.pwrStateResidencyTicks::OFF  20439095706                       # Cumulative time (in ticks) in various power states
system.switch_cpus_11.dtb.walker.pwrStateResidencyTicks::UNDEFINED 1313790803322                       # Cumulative time (in ticks) in various power states
system.switch_cpus_11.itb.walker.pwrStateResidencyTicks::UNDEFINED 1313790803322                       # Cumulative time (in ticks) in various power states
system.cpu_voltage_domain.voltage                   1                       # Voltage in Volts
system.switch_cpus1.numPwrStateTransitions            1                       # Number of power state transitions
system.switch_cpus1.pwrStateResidencyTicks::UNDEFINED 1293351707616                       # Cumulative time (in ticks) in various power states
system.switch_cpus1.pwrStateResidencyTicks::OFF  20439095706                       # Cumulative time (in ticks) in various power states
system.switch_cpus1.dtb.walker.pwrStateResidencyTicks::UNDEFINED 1313790803322                       # Cumulative time (in ticks) in various power states
system.switch_cpus1.itb.walker.pwrStateResidencyTicks::UNDEFINED 1313790803322                       # Cumulative time (in ticks) in various power states
system.mem_ctrls.pwrStateResidencyTicks::UNDEFINED 1313790803322                       # Cumulative time (in ticks) in various power states
system.mem_ctrls.bytes_read::.cpu0.inst           128                       # Number of bytes read from this memory
system.mem_ctrls.bytes_read::.cpu0.data            64                       # Number of bytes read from this memory
system.mem_ctrls.bytes_read::.cpu1.inst            64                       # Number of bytes read from this memory
system.mem_ctrls.bytes_read::.cpu1.data            64                       # Number of bytes read from this memory
system.mem_ctrls.bytes_read::.switch_cpus0.inst         2496                       # Number of bytes read from this memory
system.mem_ctrls.bytes_read::.switch_cpus0.data       184000                       # Number of bytes read from this memory
system.mem_ctrls.bytes_read::.switch_cpus1.inst        12672                       # Number of bytes read from this memory
system.mem_ctrls.bytes_read::.switch_cpus1.data        78784                       # Number of bytes read from this memory
system.mem_ctrls.bytes_read::.switch_cpus_10.inst       134912                       # Number of bytes read from this memory
system.mem_ctrls.bytes_read::.switch_cpus_10.data       947776                       # Number of bytes read from this memory
system.mem_ctrls.bytes_read::.switch_cpus_11.inst         5504                       # Number of bytes read from this memory
system.mem_ctrls.bytes_read::.switch_cpus_11.data      1438528                       # Number of bytes read from this memory
system.mem_ctrls.bytes_read::total            2804992                       # Number of bytes read from this memory
system.mem_ctrls.bytes_inst_read::.cpu0.inst          128                       # Number of instructions bytes read from this memory
system.mem_ctrls.bytes_inst_read::.cpu1.inst           64                       # Number of instructions bytes read from this memory
system.mem_ctrls.bytes_inst_read::.switch_cpus0.inst         2496                       # Number of instructions bytes read from this memory
system.mem_ctrls.bytes_inst_read::.switch_cpus1.inst        12672                       # Number of instructions bytes read from this memory
system.mem_ctrls.bytes_inst_read::.switch_cpus_10.inst       134912                       # Number of instructions bytes read from this memory
system.mem_ctrls.bytes_inst_read::.switch_cpus_11.inst         5504                       # Number of instructions bytes read from this memory
system.mem_ctrls.bytes_inst_read::total        155776                       # Number of instructions bytes read from this memory
system.mem_ctrls.num_reads::.cpu0.inst              2                       # Number of read requests responded to by this memory
system.mem_ctrls.num_reads::.cpu0.data              1                       # Number of read requests responded to by this memory
system.mem_ctrls.num_reads::.cpu1.inst              1                       # Number of read requests responded to by this memory
system.mem_ctrls.num_reads::.cpu1.data              1                       # Number of read requests responded to by this memory
system.mem_ctrls.num_reads::.switch_cpus0.inst           39                       # Number of read requests responded to by this memory
system.mem_ctrls.num_reads::.switch_cpus0.data         2875                       # Number of read requests responded to by this memory
system.mem_ctrls.num_reads::.switch_cpus1.inst          198                       # Number of read requests responded to by this memory
system.mem_ctrls.num_reads::.switch_cpus1.data         1231                       # Number of read requests responded to by this memory
system.mem_ctrls.num_reads::.switch_cpus_10.inst         2108                       # Number of read requests responded to by this memory
system.mem_ctrls.num_reads::.switch_cpus_10.data        14809                       # Number of read requests responded to by this memory
system.mem_ctrls.num_reads::.switch_cpus_11.inst           86                       # Number of read requests responded to by this memory
system.mem_ctrls.num_reads::.switch_cpus_11.data        22477                       # Number of read requests responded to by this memory
system.mem_ctrls.num_reads::total               43828                       # Number of read requests responded to by this memory
system.mem_ctrls.bw_read::.cpu0.inst             6263                       # Total read bandwidth from this memory (bytes/s)
system.mem_ctrls.bw_read::.cpu0.data             3131                       # Total read bandwidth from this memory (bytes/s)
system.mem_ctrls.bw_read::.cpu1.inst             3131                       # Total read bandwidth from this memory (bytes/s)
system.mem_ctrls.bw_read::.cpu1.data             3131                       # Total read bandwidth from this memory (bytes/s)
system.mem_ctrls.bw_read::.switch_cpus0.inst       122119                       # Total read bandwidth from this memory (bytes/s)
system.mem_ctrls.bw_read::.switch_cpus0.data      9002355                       # Total read bandwidth from this memory (bytes/s)
system.mem_ctrls.bw_read::.switch_cpus1.inst       619988                       # Total read bandwidth from this memory (bytes/s)
system.mem_ctrls.bw_read::.switch_cpus1.data      3854574                       # Total read bandwidth from this memory (bytes/s)
system.mem_ctrls.bw_read::.switch_cpus_10.inst      6600683                       # Total read bandwidth from this memory (bytes/s)
system.mem_ctrls.bw_read::.switch_cpus_10.data     46370740                       # Total read bandwidth from this memory (bytes/s)
system.mem_ctrls.bw_read::.switch_cpus_11.inst       269288                       # Total read bandwidth from this memory (bytes/s)
system.mem_ctrls.bw_read::.switch_cpus_11.data     70381196                       # Total read bandwidth from this memory (bytes/s)
system.mem_ctrls.bw_read::total             137236600                       # Total read bandwidth from this memory (bytes/s)
system.mem_ctrls.bw_inst_read::.cpu0.inst         6263                       # Instruction read bandwidth from this memory (bytes/s)
system.mem_ctrls.bw_inst_read::.cpu1.inst         3131                       # Instruction read bandwidth from this memory (bytes/s)
system.mem_ctrls.bw_inst_read::.switch_cpus0.inst       122119                       # Instruction read bandwidth from this memory (bytes/s)
system.mem_ctrls.bw_inst_read::.switch_cpus1.inst       619988                       # Instruction read bandwidth from this memory (bytes/s)
system.mem_ctrls.bw_inst_read::.switch_cpus_10.inst      6600683                       # Instruction read bandwidth from this memory (bytes/s)
system.mem_ctrls.bw_inst_read::.switch_cpus_11.inst       269288                       # Instruction read bandwidth from this memory (bytes/s)
system.mem_ctrls.bw_inst_read::total          7621472                       # Instruction read bandwidth from this memory (bytes/s)
system.mem_ctrls.bw_total::.cpu0.inst            6263                       # Total bandwidth to/from this memory (bytes/s)
system.mem_ctrls.bw_total::.cpu0.data            3131                       # Total bandwidth to/from this memory (bytes/s)
system.mem_ctrls.bw_total::.cpu1.inst            3131                       # Total bandwidth to/from this memory (bytes/s)
system.mem_ctrls.bw_total::.cpu1.data            3131                       # Total bandwidth to/from this memory (bytes/s)
system.mem_ctrls.bw_total::.switch_cpus0.inst       122119                       # Total bandwidth to/from this memory (bytes/s)
system.mem_ctrls.bw_total::.switch_cpus0.data      9002355                       # Total bandwidth to/from this memory (bytes/s)
system.mem_ctrls.bw_total::.switch_cpus1.inst       619988                       # Total bandwidth to/from this memory (bytes/s)
system.mem_ctrls.bw_total::.switch_cpus1.data      3854574                       # Total bandwidth to/from this memory (bytes/s)
system.mem_ctrls.bw_total::.switch_cpus_10.inst      6600683                       # Total bandwidth to/from this memory (bytes/s)
system.mem_ctrls.bw_total::.switch_cpus_10.data     46370740                       # Total bandwidth to/from this memory (bytes/s)
system.mem_ctrls.bw_total::.switch_cpus_11.inst       269288                       # Total bandwidth to/from this memory (bytes/s)
system.mem_ctrls.bw_total::.switch_cpus_11.data     70381196                       # Total bandwidth to/from this memory (bytes/s)
system.mem_ctrls.bw_total::total            137236600                       # Total bandwidth to/from this memory (bytes/s)
system.cpu_clk_domain.clock                       417                       # Clock period in ticks

---------- End Simulation Statistics   ----------
