
---------- Begin Simulation Statistics ----------
final_tick                               1312417050198                       # Number of ticks from beginning of simulation (restored from checkpoints and never reset)
host_inst_rate                                 166891                       # Simulator instruction rate (inst/s)
host_mem_usage                                4448740                       # Number of bytes of host memory used
host_op_rate                                   316498                       # Simulator op (including micro ops) rate (op/s)
host_seconds                                   525.64                       # Real time elapsed on the host
host_tick_rate                               36271002                       # Simulator tick rate (ticks/s)
sim_freq                                 1000000000000                       # Frequency of simulated ticks
sim_insts                                    87723665                       # Number of instructions simulated
sim_ops                                     166362707                       # Number of ops (including micro ops) simulated
sim_seconds                                  0.019065                       # Number of seconds simulated
sim_ticks                                 19065342582                       # Number of ticks simulated
system.cpu0.committedInsts                          2                       # Number of instructions committed
system.cpu0.committedOps                            3                       # Number of ops (including micro ops) committed
system.cpu0.dtb.rdAccesses                          1                       # TLB accesses on read requests
system.cpu0.dtb.rdMisses                            0                       # TLB misses on read requests
system.cpu0.dtb.wrAccesses                          0                       # TLB accesses on write requests
system.cpu0.dtb.wrMisses                            0                       # TLB misses on write requests
system.cpu0.idle_fraction                           0                       # Percentage of idle cycles
system.cpu0.itb.rdAccesses                          0                       # TLB accesses on read requests
system.cpu0.itb.rdMisses                            0                       # TLB misses on read requests
system.cpu0.itb.wrAccesses                          3                       # TLB accesses on write requests
system.cpu0.itb.wrMisses                            0                       # TLB misses on write requests
system.cpu0.not_idle_fraction                       1                       # Percentage of non-idle cycles
system.cpu0.numCycles                               4                       # number of cpu cycles simulated
system.cpu0.numWorkItemsCompleted                   0                       # number of work items this cpu completed
system.cpu0.numWorkItemsStarted                     0                       # number of work items this cpu started
system.cpu0.num_busy_cycles                         4                       # Number of busy cycles
system.cpu0.num_cc_register_reads                   1                       # number of times the CC registers were read
system.cpu0.num_cc_register_writes                  2                       # number of times the CC registers were written
system.cpu0.num_conditional_control_insts            0                       # number of instructions that are conditional controls
system.cpu0.num_fp_alu_accesses                     0                       # Number of float alu accesses
system.cpu0.num_fp_insts                            0                       # number of float instructions
system.cpu0.num_fp_register_reads                   0                       # number of times the floating registers were read
system.cpu0.num_fp_register_writes                  0                       # number of times the floating registers were written
system.cpu0.num_func_calls                          0                       # number of times a function call or return occured
system.cpu0.num_idle_cycles                         0                       # Number of idle cycles
system.cpu0.num_int_alu_accesses                    3                       # Number of integer alu accesses
system.cpu0.num_int_insts                           3                       # number of integer instructions
system.cpu0.num_int_register_reads                  8                       # number of times the integer registers were read
system.cpu0.num_int_register_writes                 3                       # number of times the integer registers were written
system.cpu0.num_load_insts                          1                       # Number of load instructions
system.cpu0.num_mem_refs                            1                       # number of memory refs
system.cpu0.num_store_insts                         0                       # Number of store instructions
system.cpu0.num_vec_alu_accesses                    0                       # Number of vector alu accesses
system.cpu0.num_vec_insts                           0                       # number of vector instructions
system.cpu0.num_vec_register_reads                  0                       # number of times the vector registers were read
system.cpu0.num_vec_register_writes                 0                       # number of times the vector registers were written
system.cpu0.op_class::No_OpClass                    0      0.00%      0.00% # Class of executed instruction
system.cpu0.op_class::IntAlu                        2     66.67%     66.67% # Class of executed instruction
system.cpu0.op_class::IntMult                       0      0.00%     66.67% # Class of executed instruction
system.cpu0.op_class::IntDiv                        0      0.00%     66.67% # Class of executed instruction
system.cpu0.op_class::FloatAdd                      0      0.00%     66.67% # Class of executed instruction
system.cpu0.op_class::FloatCmp                      0      0.00%     66.67% # Class of executed instruction
system.cpu0.op_class::FloatCvt                      0      0.00%     66.67% # Class of executed instruction
system.cpu0.op_class::FloatMult                     0      0.00%     66.67% # Class of executed instruction
system.cpu0.op_class::FloatMultAcc                  0      0.00%     66.67% # Class of executed instruction
system.cpu0.op_class::FloatDiv                      0      0.00%     66.67% # Class of executed instruction
system.cpu0.op_class::FloatMisc                     0      0.00%     66.67% # Class of executed instruction
system.cpu0.op_class::FloatSqrt                     0      0.00%     66.67% # Class of executed instruction
system.cpu0.op_class::SimdAdd                       0      0.00%     66.67% # Class of executed instruction
system.cpu0.op_class::SimdAddAcc                    0      0.00%     66.67% # Class of executed instruction
system.cpu0.op_class::SimdAlu                       0      0.00%     66.67% # Class of executed instruction
system.cpu0.op_class::SimdCmp                       0      0.00%     66.67% # Class of executed instruction
system.cpu0.op_class::SimdCvt                       0      0.00%     66.67% # Class of executed instruction
system.cpu0.op_class::SimdMisc                      0      0.00%     66.67% # Class of executed instruction
system.cpu0.op_class::SimdMult                      0      0.00%     66.67% # Class of executed instruction
system.cpu0.op_class::SimdMultAcc                   0      0.00%     66.67% # Class of executed instruction
system.cpu0.op_class::SimdShift                     0      0.00%     66.67% # Class of executed instruction
system.cpu0.op_class::SimdShiftAcc                  0      0.00%     66.67% # Class of executed instruction
system.cpu0.op_class::SimdDiv                       0      0.00%     66.67% # Class of executed instruction
system.cpu0.op_class::SimdSqrt                      0      0.00%     66.67% # Class of executed instruction
system.cpu0.op_class::SimdFloatAdd                  0      0.00%     66.67% # Class of executed instruction
system.cpu0.op_class::SimdFloatAlu                  0      0.00%     66.67% # Class of executed instruction
system.cpu0.op_class::SimdFloatCmp                  0      0.00%     66.67% # Class of executed instruction
system.cpu0.op_class::SimdFloatCvt                  0      0.00%     66.67% # Class of executed instruction
system.cpu0.op_class::SimdFloatDiv                  0      0.00%     66.67% # Class of executed instruction
system.cpu0.op_class::SimdFloatMisc                 0      0.00%     66.67% # Class of executed instruction
system.cpu0.op_class::SimdFloatMult                 0      0.00%     66.67% # Class of executed instruction
system.cpu0.op_class::SimdFloatMultAcc              0      0.00%     66.67% # Class of executed instruction
system.cpu0.op_class::SimdFloatSqrt                 0      0.00%     66.67% # Class of executed instruction
system.cpu0.op_class::SimdReduceAdd                 0      0.00%     66.67% # Class of executed instruction
system.cpu0.op_class::SimdReduceAlu                 0      0.00%     66.67% # Class of executed instruction
system.cpu0.op_class::SimdReduceCmp                 0      0.00%     66.67% # Class of executed instruction
system.cpu0.op_class::SimdFloatReduceAdd            0      0.00%     66.67% # Class of executed instruction
system.cpu0.op_class::SimdFloatReduceCmp            0      0.00%     66.67% # Class of executed instruction
system.cpu0.op_class::SimdAes                       0      0.00%     66.67% # Class of executed instruction
system.cpu0.op_class::SimdAesMix                    0      0.00%     66.67% # Class of executed instruction
system.cpu0.op_class::SimdSha1Hash                  0      0.00%     66.67% # Class of executed instruction
system.cpu0.op_class::SimdSha1Hash2                 0      0.00%     66.67% # Class of executed instruction
system.cpu0.op_class::SimdSha256Hash                0      0.00%     66.67% # Class of executed instruction
system.cpu0.op_class::SimdSha256Hash2               0      0.00%     66.67% # Class of executed instruction
system.cpu0.op_class::SimdShaSigma2                 0      0.00%     66.67% # Class of executed instruction
system.cpu0.op_class::SimdShaSigma3                 0      0.00%     66.67% # Class of executed instruction
system.cpu0.op_class::SimdPredAlu                   0      0.00%     66.67% # Class of executed instruction
system.cpu0.op_class::MemRead                       1     33.33%    100.00% # Class of executed instruction
system.cpu0.op_class::MemWrite                      0      0.00%    100.00% # Class of executed instruction
system.cpu0.op_class::FloatMemRead                  0      0.00%    100.00% # Class of executed instruction
system.cpu0.op_class::FloatMemWrite                 0      0.00%    100.00% # Class of executed instruction
system.cpu0.op_class::IprAccess                     0      0.00%    100.00% # Class of executed instruction
system.cpu0.op_class::InstPrefetch                  0      0.00%    100.00% # Class of executed instruction
system.cpu0.op_class::total                         3                       # Class of executed instruction
system.cpu0.toL2Bus.snoop_filter.hit_multi_requests         9030                       # Number of requests hitting in the snoop filter with multiple (>1) holders of the requested data.
system.cpu0.toL2Bus.snoop_filter.hit_multi_snoops            0                       # Number of snoops hitting in the snoop filter with multiple (>1) holders of the requested data.
system.cpu0.toL2Bus.snoop_filter.hit_single_requests       453730                       # Number of requests hitting in the snoop filter with a single holder of the requested data.
system.cpu0.toL2Bus.snoop_filter.hit_single_snoops            0                       # Number of snoops hitting in the snoop filter with a single holder of the requested data.
system.cpu0.toL2Bus.snoop_filter.tot_requests       908484                       # Total number of requests made to the snoop filter.
system.cpu0.toL2Bus.snoop_filter.tot_snoops            0                       # Total number of snoops made to the snoop filter.
system.cpu0.toL3Bus.snoop_filter.hit_multi_requests            0                       # Number of requests hitting in the snoop filter with multiple (>1) holders of the requested data.
system.cpu0.toL3Bus.snoop_filter.hit_multi_snoops            0                       # Number of snoops hitting in the snoop filter with multiple (>1) holders of the requested data.
system.cpu0.toL3Bus.snoop_filter.hit_single_requests            0                       # Number of requests hitting in the snoop filter with a single holder of the requested data.
system.cpu0.toL3Bus.snoop_filter.hit_single_snoops            0                       # Number of snoops hitting in the snoop filter with a single holder of the requested data.
system.cpu0.toL3Bus.snoop_filter.tot_requests         1263                       # Total number of requests made to the snoop filter.
system.cpu0.toL3Bus.snoop_filter.tot_snoops            0                       # Total number of snoops made to the snoop filter.
system.cpu0.workload.numSyscalls                    0                       # Number of system calls
system.cpu1.Branches                                1                       # Number of branches fetched
system.cpu1.committedInsts                          1                       # Number of instructions committed
system.cpu1.committedOps                            5                       # Number of ops (including micro ops) committed
system.cpu1.dtb.rdAccesses                          0                       # TLB accesses on read requests
system.cpu1.dtb.rdMisses                            0                       # TLB misses on read requests
system.cpu1.dtb.wrAccesses                          1                       # TLB accesses on write requests
system.cpu1.dtb.wrMisses                            0                       # TLB misses on write requests
system.cpu1.idle_fraction                           0                       # Percentage of idle cycles
system.cpu1.itb.rdAccesses                          0                       # TLB accesses on read requests
system.cpu1.itb.rdMisses                            0                       # TLB misses on read requests
system.cpu1.itb.wrAccesses                          2                       # TLB accesses on write requests
system.cpu1.itb.wrMisses                            0                       # TLB misses on write requests
system.cpu1.not_idle_fraction                       1                       # Percentage of non-idle cycles
system.cpu1.numCycles                               6                       # number of cpu cycles simulated
system.cpu1.numWorkItemsCompleted                   0                       # number of work items this cpu completed
system.cpu1.numWorkItemsStarted                     0                       # number of work items this cpu started
system.cpu1.num_busy_cycles                         6                       # Number of busy cycles
system.cpu1.num_conditional_control_insts            0                       # number of instructions that are conditional controls
system.cpu1.num_fp_alu_accesses                     0                       # Number of float alu accesses
system.cpu1.num_fp_insts                            0                       # number of float instructions
system.cpu1.num_fp_register_reads                   0                       # number of times the floating registers were read
system.cpu1.num_fp_register_writes                  0                       # number of times the floating registers were written
system.cpu1.num_func_calls                          1                       # number of times a function call or return occured
system.cpu1.num_idle_cycles                         0                       # Number of idle cycles
system.cpu1.num_int_alu_accesses                    5                       # Number of integer alu accesses
system.cpu1.num_int_insts                           5                       # number of integer instructions
system.cpu1.num_int_register_reads                  9                       # number of times the integer registers were read
system.cpu1.num_int_register_writes                 3                       # number of times the integer registers were written
system.cpu1.num_load_insts                          0                       # Number of load instructions
system.cpu1.num_mem_refs                            1                       # number of memory refs
system.cpu1.num_store_insts                         1                       # Number of store instructions
system.cpu1.num_vec_alu_accesses                    0                       # Number of vector alu accesses
system.cpu1.num_vec_insts                           0                       # number of vector instructions
system.cpu1.num_vec_register_reads                  0                       # number of times the vector registers were read
system.cpu1.num_vec_register_writes                 0                       # number of times the vector registers were written
system.cpu1.op_class::No_OpClass                    0      0.00%      0.00% # Class of executed instruction
system.cpu1.op_class::IntAlu                        4     80.00%     80.00% # Class of executed instruction
system.cpu1.op_class::IntMult                       0      0.00%     80.00% # Class of executed instruction
system.cpu1.op_class::IntDiv                        0      0.00%     80.00% # Class of executed instruction
system.cpu1.op_class::FloatAdd                      0      0.00%     80.00% # Class of executed instruction
system.cpu1.op_class::FloatCmp                      0      0.00%     80.00% # Class of executed instruction
system.cpu1.op_class::FloatCvt                      0      0.00%     80.00% # Class of executed instruction
system.cpu1.op_class::FloatMult                     0      0.00%     80.00% # Class of executed instruction
system.cpu1.op_class::FloatMultAcc                  0      0.00%     80.00% # Class of executed instruction
system.cpu1.op_class::FloatDiv                      0      0.00%     80.00% # Class of executed instruction
system.cpu1.op_class::FloatMisc                     0      0.00%     80.00% # Class of executed instruction
system.cpu1.op_class::FloatSqrt                     0      0.00%     80.00% # Class of executed instruction
system.cpu1.op_class::SimdAdd                       0      0.00%     80.00% # Class of executed instruction
system.cpu1.op_class::SimdAddAcc                    0      0.00%     80.00% # Class of executed instruction
system.cpu1.op_class::SimdAlu                       0      0.00%     80.00% # Class of executed instruction
system.cpu1.op_class::SimdCmp                       0      0.00%     80.00% # Class of executed instruction
system.cpu1.op_class::SimdCvt                       0      0.00%     80.00% # Class of executed instruction
system.cpu1.op_class::SimdMisc                      0      0.00%     80.00% # Class of executed instruction
system.cpu1.op_class::SimdMult                      0      0.00%     80.00% # Class of executed instruction
system.cpu1.op_class::SimdMultAcc                   0      0.00%     80.00% # Class of executed instruction
system.cpu1.op_class::SimdShift                     0      0.00%     80.00% # Class of executed instruction
system.cpu1.op_class::SimdShiftAcc                  0      0.00%     80.00% # Class of executed instruction
system.cpu1.op_class::SimdDiv                       0      0.00%     80.00% # Class of executed instruction
system.cpu1.op_class::SimdSqrt                      0      0.00%     80.00% # Class of executed instruction
system.cpu1.op_class::SimdFloatAdd                  0      0.00%     80.00% # Class of executed instruction
system.cpu1.op_class::SimdFloatAlu                  0      0.00%     80.00% # Class of executed instruction
system.cpu1.op_class::SimdFloatCmp                  0      0.00%     80.00% # Class of executed instruction
system.cpu1.op_class::SimdFloatCvt                  0      0.00%     80.00% # Class of executed instruction
system.cpu1.op_class::SimdFloatDiv                  0      0.00%     80.00% # Class of executed instruction
system.cpu1.op_class::SimdFloatMisc                 0      0.00%     80.00% # Class of executed instruction
system.cpu1.op_class::SimdFloatMult                 0      0.00%     80.00% # Class of executed instruction
system.cpu1.op_class::SimdFloatMultAcc              0      0.00%     80.00% # Class of executed instruction
system.cpu1.op_class::SimdFloatSqrt                 0      0.00%     80.00% # Class of executed instruction
system.cpu1.op_class::SimdReduceAdd                 0      0.00%     80.00% # Class of executed instruction
system.cpu1.op_class::SimdReduceAlu                 0      0.00%     80.00% # Class of executed instruction
system.cpu1.op_class::SimdReduceCmp                 0      0.00%     80.00% # Class of executed instruction
system.cpu1.op_class::SimdFloatReduceAdd            0      0.00%     80.00% # Class of executed instruction
system.cpu1.op_class::SimdFloatReduceCmp            0      0.00%     80.00% # Class of executed instruction
system.cpu1.op_class::SimdAes                       0      0.00%     80.00% # Class of executed instruction
system.cpu1.op_class::SimdAesMix                    0      0.00%     80.00% # Class of executed instruction
system.cpu1.op_class::SimdSha1Hash                  0      0.00%     80.00% # Class of executed instruction
system.cpu1.op_class::SimdSha1Hash2                 0      0.00%     80.00% # Class of executed instruction
system.cpu1.op_class::SimdSha256Hash                0      0.00%     80.00% # Class of executed instruction
system.cpu1.op_class::SimdSha256Hash2               0      0.00%     80.00% # Class of executed instruction
system.cpu1.op_class::SimdShaSigma2                 0      0.00%     80.00% # Class of executed instruction
system.cpu1.op_class::SimdShaSigma3                 0      0.00%     80.00% # Class of executed instruction
system.cpu1.op_class::SimdPredAlu                   0      0.00%     80.00% # Class of executed instruction
system.cpu1.op_class::MemRead                       0      0.00%     80.00% # Class of executed instruction
system.cpu1.op_class::MemWrite                      1     20.00%    100.00% # Class of executed instruction
system.cpu1.op_class::FloatMemRead                  0      0.00%    100.00% # Class of executed instruction
system.cpu1.op_class::FloatMemWrite                 0      0.00%    100.00% # Class of executed instruction
system.cpu1.op_class::IprAccess                     0      0.00%    100.00% # Class of executed instruction
system.cpu1.op_class::InstPrefetch                  0      0.00%    100.00% # Class of executed instruction
system.cpu1.op_class::total                         5                       # Class of executed instruction
system.cpu1.toL2Bus.snoop_filter.hit_multi_requests           29                       # Number of requests hitting in the snoop filter with multiple (>1) holders of the requested data.
system.cpu1.toL2Bus.snoop_filter.hit_multi_snoops            0                       # Number of snoops hitting in the snoop filter with multiple (>1) holders of the requested data.
system.cpu1.toL2Bus.snoop_filter.hit_single_requests        41281                       # Number of requests hitting in the snoop filter with a single holder of the requested data.
system.cpu1.toL2Bus.snoop_filter.hit_single_snoops          331                       # Number of snoops hitting in the snoop filter with a single holder of the requested data.
system.cpu1.toL2Bus.snoop_filter.tot_requests        83360                       # Total number of requests made to the snoop filter.
system.cpu1.toL2Bus.snoop_filter.tot_snoops          331                       # Total number of snoops made to the snoop filter.
system.cpu1.toL3Bus.snoop_filter.hit_multi_requests            0                       # Number of requests hitting in the snoop filter with multiple (>1) holders of the requested data.
system.cpu1.toL3Bus.snoop_filter.hit_multi_snoops            0                       # Number of snoops hitting in the snoop filter with multiple (>1) holders of the requested data.
system.cpu1.toL3Bus.snoop_filter.hit_single_requests        18419                       # Number of requests hitting in the snoop filter with a single holder of the requested data.
system.cpu1.toL3Bus.snoop_filter.hit_single_snoops            1                       # Number of snoops hitting in the snoop filter with a single holder of the requested data.
system.cpu1.toL3Bus.snoop_filter.tot_requests        41258                       # Total number of requests made to the snoop filter.
system.cpu1.toL3Bus.snoop_filter.tot_snoops            1                       # Total number of snoops made to the snoop filter.
system.cpu1.workload.numSyscalls                12179                       # Number of system calls
system.membus.snoop_filter.hit_multi_requests            0                       # Number of requests hitting in the snoop filter with multiple (>1) holders of the requested data.
system.membus.snoop_filter.hit_multi_snoops            0                       # Number of snoops hitting in the snoop filter with multiple (>1) holders of the requested data.
system.membus.snoop_filter.hit_single_requests            0                       # Number of requests hitting in the snoop filter with a single holder of the requested data.
system.membus.snoop_filter.hit_single_snoops            0                       # Number of snoops hitting in the snoop filter with a single holder of the requested data.
system.membus.snoop_filter.tot_requests         24092                       # Total number of requests made to the snoop filter.
system.membus.snoop_filter.tot_snoops               0                       # Total number of snoops made to the snoop filter.
system.switch_cpus0.Branches                   167276                       # Number of branches fetched
system.switch_cpus0.committedInsts             944656                       # Number of instructions committed
system.switch_cpus0.committedOps              1702344                       # Number of ops (including micro ops) committed
system.switch_cpus0.dtb.rdAccesses             347243                       # TLB accesses on read requests
system.switch_cpus0.dtb.rdMisses                 1719                       # TLB misses on read requests
system.switch_cpus0.dtb.wrAccesses             155044                       # TLB accesses on write requests
system.switch_cpus0.dtb.wrMisses                  322                       # TLB misses on write requests
system.switch_cpus0.idle_fraction            0.000000                       # Percentage of idle cycles
system.switch_cpus0.itb.rdAccesses                  0                       # TLB accesses on read requests
system.switch_cpus0.itb.rdMisses                    0                       # TLB misses on read requests
system.switch_cpus0.itb.wrAccesses            1271951                       # TLB accesses on write requests
system.switch_cpus0.itb.wrMisses                   37                       # TLB misses on write requests
system.switch_cpus0.not_idle_fraction        1.000000                       # Percentage of non-idle cycles
system.switch_cpus0.numCycles                 5562692                       # number of cpu cycles simulated
system.switch_cpus0.numWorkItemsCompleted            0                       # number of work items this cpu completed
system.switch_cpus0.numWorkItemsStarted             0                       # number of work items this cpu started
system.switch_cpus0.num_busy_cycles      5562691.269992                       # Number of busy cycles
system.switch_cpus0.num_cc_register_reads       755322                       # number of times the CC registers were read
system.switch_cpus0.num_cc_register_writes       362850                       # number of times the CC registers were written
system.switch_cpus0.num_conditional_control_insts       104568                       # number of instructions that are conditional controls
system.switch_cpus0.num_fp_alu_accesses        350630                       # Number of float alu accesses
system.switch_cpus0.num_fp_insts               350630                       # number of float instructions
system.switch_cpus0.num_fp_register_reads       531173                       # number of times the floating registers were read
system.switch_cpus0.num_fp_register_writes       301823                       # number of times the floating registers were written
system.switch_cpus0.num_func_calls              52426                       # number of times a function call or return occured
system.switch_cpus0.num_idle_cycles          0.730008                       # Number of idle cycles
system.switch_cpus0.num_int_alu_accesses      1501402                       # Number of integer alu accesses
system.switch_cpus0.num_int_insts             1501402                       # number of integer instructions
system.switch_cpus0.num_int_register_reads      3215239                       # number of times the integer registers were read
system.switch_cpus0.num_int_register_writes      1054419                       # number of times the integer registers were written
system.switch_cpus0.num_load_insts             346966                       # Number of load instructions
system.switch_cpus0.num_mem_refs               502010                       # number of memory refs
system.switch_cpus0.num_store_insts            155044                       # Number of store instructions
system.switch_cpus0.num_vec_alu_accesses            0                       # Number of vector alu accesses
system.switch_cpus0.num_vec_insts                   0                       # number of vector instructions
system.switch_cpus0.num_vec_register_reads            0                       # number of times the vector registers were read
system.switch_cpus0.num_vec_register_writes            0                       # number of times the vector registers were written
system.switch_cpus0.op_class::No_OpClass         8853      0.52%      0.52% # Class of executed instruction
system.switch_cpus0.op_class::IntAlu          1017618     59.78%     60.30% # Class of executed instruction
system.switch_cpus0.op_class::IntMult            4004      0.24%     60.53% # Class of executed instruction
system.switch_cpus0.op_class::IntDiv                0      0.00%     60.53% # Class of executed instruction
system.switch_cpus0.op_class::FloatAdd           3534      0.21%     60.74% # Class of executed instruction
system.switch_cpus0.op_class::FloatCmp              0      0.00%     60.74% # Class of executed instruction
system.switch_cpus0.op_class::FloatCvt              0      0.00%     60.74% # Class of executed instruction
system.switch_cpus0.op_class::FloatMult             0      0.00%     60.74% # Class of executed instruction
system.switch_cpus0.op_class::FloatMultAcc            0      0.00%     60.74% # Class of executed instruction
system.switch_cpus0.op_class::FloatDiv              0      0.00%     60.74% # Class of executed instruction
system.switch_cpus0.op_class::FloatMisc             0      0.00%     60.74% # Class of executed instruction
system.switch_cpus0.op_class::FloatSqrt             0      0.00%     60.74% # Class of executed instruction
system.switch_cpus0.op_class::SimdAdd               0      0.00%     60.74% # Class of executed instruction
system.switch_cpus0.op_class::SimdAddAcc            0      0.00%     60.74% # Class of executed instruction
system.switch_cpus0.op_class::SimdAlu           10484      0.62%     61.36% # Class of executed instruction
system.switch_cpus0.op_class::SimdCmp               0      0.00%     61.36% # Class of executed instruction
system.switch_cpus0.op_class::SimdCvt               0      0.00%     61.36% # Class of executed instruction
system.switch_cpus0.op_class::SimdMisc            280      0.02%     61.37% # Class of executed instruction
system.switch_cpus0.op_class::SimdMult              0      0.00%     61.37% # Class of executed instruction
system.switch_cpus0.op_class::SimdMultAcc            0      0.00%     61.37% # Class of executed instruction
system.switch_cpus0.op_class::SimdShift             0      0.00%     61.37% # Class of executed instruction
system.switch_cpus0.op_class::SimdShiftAcc            0      0.00%     61.37% # Class of executed instruction
system.switch_cpus0.op_class::SimdDiv               0      0.00%     61.37% # Class of executed instruction
system.switch_cpus0.op_class::SimdSqrt              0      0.00%     61.37% # Class of executed instruction
system.switch_cpus0.op_class::SimdFloatAdd        63335      3.72%     65.09% # Class of executed instruction
system.switch_cpus0.op_class::SimdFloatAlu            0      0.00%     65.09% # Class of executed instruction
system.switch_cpus0.op_class::SimdFloatCmp          209      0.01%     65.11% # Class of executed instruction
system.switch_cpus0.op_class::SimdFloatCvt        27163      1.60%     66.70% # Class of executed instruction
system.switch_cpus0.op_class::SimdFloatDiv         2345      0.14%     66.84% # Class of executed instruction
system.switch_cpus0.op_class::SimdFloatMisc            0      0.00%     66.84% # Class of executed instruction
system.switch_cpus0.op_class::SimdFloatMult        62263      3.66%     70.50% # Class of executed instruction
system.switch_cpus0.op_class::SimdFloatMultAcc            0      0.00%     70.50% # Class of executed instruction
system.switch_cpus0.op_class::SimdFloatSqrt          246      0.01%     70.51% # Class of executed instruction
system.switch_cpus0.op_class::SimdReduceAdd            0      0.00%     70.51% # Class of executed instruction
system.switch_cpus0.op_class::SimdReduceAlu            0      0.00%     70.51% # Class of executed instruction
system.switch_cpus0.op_class::SimdReduceCmp            0      0.00%     70.51% # Class of executed instruction
system.switch_cpus0.op_class::SimdFloatReduceAdd            0      0.00%     70.51% # Class of executed instruction
system.switch_cpus0.op_class::SimdFloatReduceCmp            0      0.00%     70.51% # Class of executed instruction
system.switch_cpus0.op_class::SimdAes               0      0.00%     70.51% # Class of executed instruction
system.switch_cpus0.op_class::SimdAesMix            0      0.00%     70.51% # Class of executed instruction
system.switch_cpus0.op_class::SimdSha1Hash            0      0.00%     70.51% # Class of executed instruction
system.switch_cpus0.op_class::SimdSha1Hash2            0      0.00%     70.51% # Class of executed instruction
system.switch_cpus0.op_class::SimdSha256Hash            0      0.00%     70.51% # Class of executed instruction
system.switch_cpus0.op_class::SimdSha256Hash2            0      0.00%     70.51% # Class of executed instruction
system.switch_cpus0.op_class::SimdShaSigma2            0      0.00%     70.51% # Class of executed instruction
system.switch_cpus0.op_class::SimdShaSigma3            0      0.00%     70.51% # Class of executed instruction
system.switch_cpus0.op_class::SimdPredAlu            0      0.00%     70.51% # Class of executed instruction
system.switch_cpus0.op_class::MemRead          214367     12.59%     83.10% # Class of executed instruction
system.switch_cpus0.op_class::MemWrite         129351      7.60%     90.70% # Class of executed instruction
system.switch_cpus0.op_class::FloatMemRead       132599      7.79%     98.49% # Class of executed instruction
system.switch_cpus0.op_class::FloatMemWrite        25693      1.51%    100.00% # Class of executed instruction
system.switch_cpus0.op_class::IprAccess             0      0.00%    100.00% # Class of executed instruction
system.switch_cpus0.op_class::InstPrefetch            0      0.00%    100.00% # Class of executed instruction
system.switch_cpus0.op_class::total           1702344                       # Class of executed instruction
system.switch_cpus1.Branches                   224834                       # Number of branches fetched
system.switch_cpus1.committedInsts            1000001                       # Number of instructions committed
system.switch_cpus1.committedOps              2024684                       # Number of ops (including micro ops) committed
system.switch_cpus1.dtb.rdAccesses             291888                       # TLB accesses on read requests
system.switch_cpus1.dtb.rdMisses                   40                       # TLB misses on read requests
system.switch_cpus1.dtb.wrAccesses             213202                       # TLB accesses on write requests
system.switch_cpus1.dtb.wrMisses                    3                       # TLB misses on write requests
system.switch_cpus1.idle_fraction            0.000000                       # Percentage of idle cycles
system.switch_cpus1.itb.rdAccesses                  0                       # TLB accesses on read requests
system.switch_cpus1.itb.rdMisses                    0                       # TLB misses on read requests
system.switch_cpus1.itb.wrAccesses            1267697                       # TLB accesses on write requests
system.switch_cpus1.itb.wrMisses                   27                       # TLB misses on write requests
system.switch_cpus1.not_idle_fraction        1.000000                       # Percentage of non-idle cycles
system.switch_cpus1.numCycles                 5562692                       # number of cpu cycles simulated
system.switch_cpus1.numWorkItemsCompleted            0                       # number of work items this cpu completed
system.switch_cpus1.numWorkItemsStarted             0                       # number of work items this cpu started
system.switch_cpus1.num_busy_cycles      5562691.269992                       # Number of busy cycles
system.switch_cpus1.num_cc_register_reads       839766                       # number of times the CC registers were read
system.switch_cpus1.num_cc_register_writes       449805                       # number of times the CC registers were written
system.switch_cpus1.num_conditional_control_insts       102459                       # number of instructions that are conditional controls
system.switch_cpus1.num_fp_alu_accesses         16406                       # Number of float alu accesses
system.switch_cpus1.num_fp_insts                16406                       # number of float instructions
system.switch_cpus1.num_fp_register_reads        27540                       # number of times the floating registers were read
system.switch_cpus1.num_fp_register_writes        14430                       # number of times the floating registers were written
system.switch_cpus1.num_func_calls             106054                       # number of times a function call or return occured
system.switch_cpus1.num_idle_cycles          0.730008                       # Number of idle cycles
system.switch_cpus1.num_int_alu_accesses      2003876                       # Number of integer alu accesses
system.switch_cpus1.num_int_insts             2003876                       # number of integer instructions
system.switch_cpus1.num_int_register_reads      4247890                       # number of times the integer registers were read
system.switch_cpus1.num_int_register_writes      1572123                       # number of times the integer registers were written
system.switch_cpus1.num_load_insts             291886                       # Number of load instructions
system.switch_cpus1.num_mem_refs               505086                       # number of memory refs
system.switch_cpus1.num_store_insts            213200                       # Number of store instructions
system.switch_cpus1.num_vec_alu_accesses            0                       # Number of vector alu accesses
system.switch_cpus1.num_vec_insts                   0                       # number of vector instructions
system.switch_cpus1.num_vec_register_reads            0                       # number of times the vector registers were read
system.switch_cpus1.num_vec_register_writes            0                       # number of times the vector registers were written
system.switch_cpus1.op_class::No_OpClass         6797      0.34%      0.34% # Class of executed instruction
system.switch_cpus1.op_class::IntAlu          1497763     73.98%     74.31% # Class of executed instruction
system.switch_cpus1.op_class::IntMult             941      0.05%     74.36% # Class of executed instruction
system.switch_cpus1.op_class::IntDiv             2289      0.11%     74.47% # Class of executed instruction
system.switch_cpus1.op_class::FloatAdd            654      0.03%     74.50% # Class of executed instruction
system.switch_cpus1.op_class::FloatCmp              0      0.00%     74.50% # Class of executed instruction
system.switch_cpus1.op_class::FloatCvt              0      0.00%     74.50% # Class of executed instruction
system.switch_cpus1.op_class::FloatMult             0      0.00%     74.50% # Class of executed instruction
system.switch_cpus1.op_class::FloatMultAcc            0      0.00%     74.50% # Class of executed instruction
system.switch_cpus1.op_class::FloatDiv              0      0.00%     74.50% # Class of executed instruction
system.switch_cpus1.op_class::FloatMisc             0      0.00%     74.50% # Class of executed instruction
system.switch_cpus1.op_class::FloatSqrt             0      0.00%     74.50% # Class of executed instruction
system.switch_cpus1.op_class::SimdAdd               0      0.00%     74.50% # Class of executed instruction
system.switch_cpus1.op_class::SimdAddAcc            0      0.00%     74.50% # Class of executed instruction
system.switch_cpus1.op_class::SimdAlu            2624      0.13%     74.63% # Class of executed instruction
system.switch_cpus1.op_class::SimdCmp               0      0.00%     74.63% # Class of executed instruction
system.switch_cpus1.op_class::SimdCvt            2630      0.13%     74.76% # Class of executed instruction
system.switch_cpus1.op_class::SimdMisc           5900      0.29%     75.05% # Class of executed instruction
system.switch_cpus1.op_class::SimdMult              0      0.00%     75.05% # Class of executed instruction
system.switch_cpus1.op_class::SimdMultAcc            0      0.00%     75.05% # Class of executed instruction
system.switch_cpus1.op_class::SimdShift             0      0.00%     75.05% # Class of executed instruction
system.switch_cpus1.op_class::SimdShiftAcc            0      0.00%     75.05% # Class of executed instruction
system.switch_cpus1.op_class::SimdDiv               0      0.00%     75.05% # Class of executed instruction
system.switch_cpus1.op_class::SimdSqrt              0      0.00%     75.05% # Class of executed instruction
system.switch_cpus1.op_class::SimdFloatAdd            0      0.00%     75.05% # Class of executed instruction
system.switch_cpus1.op_class::SimdFloatAlu            0      0.00%     75.05% # Class of executed instruction
system.switch_cpus1.op_class::SimdFloatCmp            0      0.00%     75.05% # Class of executed instruction
system.switch_cpus1.op_class::SimdFloatCvt            0      0.00%     75.05% # Class of executed instruction
system.switch_cpus1.op_class::SimdFloatDiv            0      0.00%     75.05% # Class of executed instruction
system.switch_cpus1.op_class::SimdFloatMisc            0      0.00%     75.05% # Class of executed instruction
system.switch_cpus1.op_class::SimdFloatMult            0      0.00%     75.05% # Class of executed instruction
system.switch_cpus1.op_class::SimdFloatMultAcc            0      0.00%     75.05% # Class of executed instruction
system.switch_cpus1.op_class::SimdFloatSqrt            0      0.00%     75.05% # Class of executed instruction
system.switch_cpus1.op_class::SimdReduceAdd            0      0.00%     75.05% # Class of executed instruction
system.switch_cpus1.op_class::SimdReduceAlu            0      0.00%     75.05% # Class of executed instruction
system.switch_cpus1.op_class::SimdReduceCmp            0      0.00%     75.05% # Class of executed instruction
system.switch_cpus1.op_class::SimdFloatReduceAdd            0      0.00%     75.05% # Class of executed instruction
system.switch_cpus1.op_class::SimdFloatReduceCmp            0      0.00%     75.05% # Class of executed instruction
system.switch_cpus1.op_class::SimdAes               0      0.00%     75.05% # Class of executed instruction
system.switch_cpus1.op_class::SimdAesMix            0      0.00%     75.05% # Class of executed instruction
system.switch_cpus1.op_class::SimdSha1Hash            0      0.00%     75.05% # Class of executed instruction
system.switch_cpus1.op_class::SimdSha1Hash2            0      0.00%     75.05% # Class of executed instruction
system.switch_cpus1.op_class::SimdSha256Hash            0      0.00%     75.05% # Class of executed instruction
system.switch_cpus1.op_class::SimdSha256Hash2            0      0.00%     75.05% # Class of executed instruction
system.switch_cpus1.op_class::SimdShaSigma2            0      0.00%     75.05% # Class of executed instruction
system.switch_cpus1.op_class::SimdShaSigma3            0      0.00%     75.05% # Class of executed instruction
system.switch_cpus1.op_class::SimdPredAlu            0      0.00%     75.05% # Class of executed instruction
system.switch_cpus1.op_class::MemRead          289904     14.32%     89.37% # Class of executed instruction
system.switch_cpus1.op_class::MemWrite         212546     10.50%     99.87% # Class of executed instruction
system.switch_cpus1.op_class::FloatMemRead         1982      0.10%     99.97% # Class of executed instruction
system.switch_cpus1.op_class::FloatMemWrite          654      0.03%    100.00% # Class of executed instruction
system.switch_cpus1.op_class::IprAccess             0      0.00%    100.00% # Class of executed instruction
system.switch_cpus1.op_class::InstPrefetch            0      0.00%    100.00% # Class of executed instruction
system.switch_cpus1.op_class::total           2024684                       # Class of executed instruction
system.switch_cpus_10.branchPred.BTBCorrect            0                       # Number of correct BTB predictions (this stat may not work properly.
system.switch_cpus_10.branchPred.BTBHitPct     0.000000                       # BTB Hit Percentage
system.switch_cpus_10.branchPred.BTBHits            0                       # Number of BTB hits
system.switch_cpus_10.branchPred.BTBLookups      8641348                       # Number of BTB lookups
system.switch_cpus_10.branchPred.RASInCorrect         1133                       # Number of incorrect RAS predictions.
system.switch_cpus_10.branchPred.condIncorrect       689610                       # Number of conditional branches incorrect
system.switch_cpus_10.branchPred.condPredicted      8174076                       # Number of conditional branches predicted
system.switch_cpus_10.branchPred.indirectHits      4362706                       # Number of indirect target hits.
system.switch_cpus_10.branchPred.indirectLookups      8641348                       # Number of indirect predictor lookups.
system.switch_cpus_10.branchPred.indirectMisses      4278642                       # Number of indirect misses.
system.switch_cpus_10.branchPred.lookups     11602611                       # Number of BP lookups
system.switch_cpus_10.branchPred.usedRAS      1575948                       # Number of times the RAS was used to get a target.
system.switch_cpus_10.branchPredindirectMispredicted       571110                       # Number of mispredicted indirect branches.
system.switch_cpus_10.cc_regfile_reads       41517743                       # number of cc regfile reads
system.switch_cpus_10.cc_regfile_writes      20419043                       # number of cc regfile writes
system.switch_cpus_10.commit.amos                   0                       # Number of atomic instructions committed
system.switch_cpus_10.commit.branchMispredicts       689618                       # The number of times a branch was mispredicted
system.switch_cpus_10.commit.branches         8861515                       # Number of branches committed
system.switch_cpus_10.commit.bw_lim_events      4087163                       # number cycles where commit BW limit reached
system.switch_cpus_10.commit.commitSquashedInsts     15920113                       # The number of squashed insts skipped by commit
system.switch_cpus_10.commit.committedInsts     50000000                       # Number of instructions committed
system.switch_cpus_10.commit.committedOps     90129864                       # Number of ops (including micro ops) committed
system.switch_cpus_10.commit.committed_per_cycle::samples     37756472                       # Number of insts commited each cycle
system.switch_cpus_10.commit.committed_per_cycle::mean     2.387137                       # Number of insts commited each cycle
system.switch_cpus_10.commit.committed_per_cycle::stdev     2.690821                       # Number of insts commited each cycle
system.switch_cpus_10.commit.committed_per_cycle::underflows            0      0.00%      0.00% # Number of insts commited each cycle
system.switch_cpus_10.commit.committed_per_cycle::0     14113801     37.38%     37.38% # Number of insts commited each cycle
system.switch_cpus_10.commit.committed_per_cycle::1      5422781     14.36%     51.74% # Number of insts commited each cycle
system.switch_cpus_10.commit.committed_per_cycle::2      2947972      7.81%     59.55% # Number of insts commited each cycle
system.switch_cpus_10.commit.committed_per_cycle::3      5346957     14.16%     73.71% # Number of insts commited each cycle
system.switch_cpus_10.commit.committed_per_cycle::4      2055379      5.44%     79.16% # Number of insts commited each cycle
system.switch_cpus_10.commit.committed_per_cycle::5      1759890      4.66%     83.82% # Number of insts commited each cycle
system.switch_cpus_10.commit.committed_per_cycle::6      1105705      2.93%     86.75% # Number of insts commited each cycle
system.switch_cpus_10.commit.committed_per_cycle::7       916824      2.43%     89.17% # Number of insts commited each cycle
system.switch_cpus_10.commit.committed_per_cycle::8      4087163     10.83%    100.00% # Number of insts commited each cycle
system.switch_cpus_10.commit.committed_per_cycle::overflows            0      0.00%    100.00% # Number of insts commited each cycle
system.switch_cpus_10.commit.committed_per_cycle::min_value            0                       # Number of insts commited each cycle
system.switch_cpus_10.commit.committed_per_cycle::max_value            8                       # Number of insts commited each cycle
system.switch_cpus_10.commit.committed_per_cycle::total     37756472                       # Number of insts commited each cycle
system.switch_cpus_10.commit.fp_insts        18590019                       # Number of committed floating point instructions.
system.switch_cpus_10.commit.function_calls      1386333                       # Number of function calls committed.
system.switch_cpus_10.commit.int_insts       79439554                       # Number of committed integer instructions.
system.switch_cpus_10.commit.loads           18367843                       # Number of loads committed
system.switch_cpus_10.commit.membars                0                       # Number of memory barriers committed
system.switch_cpus_10.commit.op_class_0::No_OpClass       479179      0.53%      0.53% # Class of committed instruction
system.switch_cpus_10.commit.op_class_0::IntAlu     53848375     59.75%     60.28% # Class of committed instruction
system.switch_cpus_10.commit.op_class_0::IntMult       209000      0.23%     60.51% # Class of committed instruction
system.switch_cpus_10.commit.op_class_0::IntDiv            0      0.00%     60.51% # Class of committed instruction
system.switch_cpus_10.commit.op_class_0::FloatAdd       191676      0.21%     60.72% # Class of committed instruction
system.switch_cpus_10.commit.op_class_0::FloatCmp            0      0.00%     60.72% # Class of committed instruction
system.switch_cpus_10.commit.op_class_0::FloatCvt            0      0.00%     60.72% # Class of committed instruction
system.switch_cpus_10.commit.op_class_0::FloatMult            0      0.00%     60.72% # Class of committed instruction
system.switch_cpus_10.commit.op_class_0::FloatMultAcc            0      0.00%     60.72% # Class of committed instruction
system.switch_cpus_10.commit.op_class_0::FloatDiv            0      0.00%     60.72% # Class of committed instruction
system.switch_cpus_10.commit.op_class_0::FloatMisc            0      0.00%     60.72% # Class of committed instruction
system.switch_cpus_10.commit.op_class_0::FloatSqrt            0      0.00%     60.72% # Class of committed instruction
system.switch_cpus_10.commit.op_class_0::SimdAdd            0      0.00%     60.72% # Class of committed instruction
system.switch_cpus_10.commit.op_class_0::SimdAddAcc            0      0.00%     60.72% # Class of committed instruction
system.switch_cpus_10.commit.op_class_0::SimdAlu       561726      0.62%     61.34% # Class of committed instruction
system.switch_cpus_10.commit.op_class_0::SimdCmp            0      0.00%     61.34% # Class of committed instruction
system.switch_cpus_10.commit.op_class_0::SimdCvt            0      0.00%     61.34% # Class of committed instruction
system.switch_cpus_10.commit.op_class_0::SimdMisc        15078      0.02%     61.36% # Class of committed instruction
system.switch_cpus_10.commit.op_class_0::SimdMult            0      0.00%     61.36% # Class of committed instruction
system.switch_cpus_10.commit.op_class_0::SimdMultAcc            0      0.00%     61.36% # Class of committed instruction
system.switch_cpus_10.commit.op_class_0::SimdShift            0      0.00%     61.36% # Class of committed instruction
system.switch_cpus_10.commit.op_class_0::SimdShiftAcc            0      0.00%     61.36% # Class of committed instruction
system.switch_cpus_10.commit.op_class_0::SimdDiv            0      0.00%     61.36% # Class of committed instruction
system.switch_cpus_10.commit.op_class_0::SimdSqrt            0      0.00%     61.36% # Class of committed instruction
system.switch_cpus_10.commit.op_class_0::SimdFloatAdd      3361366      3.73%     65.09% # Class of committed instruction
system.switch_cpus_10.commit.op_class_0::SimdFloatAlu            0      0.00%     65.09% # Class of committed instruction
system.switch_cpus_10.commit.op_class_0::SimdFloatCmp        11568      0.01%     65.10% # Class of committed instruction
system.switch_cpus_10.commit.op_class_0::SimdFloatCvt      1445030      1.60%     66.71% # Class of committed instruction
system.switch_cpus_10.commit.op_class_0::SimdFloatDiv       123080      0.14%     66.84% # Class of committed instruction
system.switch_cpus_10.commit.op_class_0::SimdFloatMisc            0      0.00%     66.84% # Class of committed instruction
system.switch_cpus_10.commit.op_class_0::SimdFloatMult      3307780      3.67%     70.51% # Class of committed instruction
system.switch_cpus_10.commit.op_class_0::SimdFloatMultAcc            0      0.00%     70.51% # Class of committed instruction
system.switch_cpus_10.commit.op_class_0::SimdFloatSqrt        11774      0.01%     70.53% # Class of committed instruction
system.switch_cpus_10.commit.op_class_0::SimdReduceAdd            0      0.00%     70.53% # Class of committed instruction
system.switch_cpus_10.commit.op_class_0::SimdReduceAlu            0      0.00%     70.53% # Class of committed instruction
system.switch_cpus_10.commit.op_class_0::SimdReduceCmp            0      0.00%     70.53% # Class of committed instruction
system.switch_cpus_10.commit.op_class_0::SimdFloatReduceAdd            0      0.00%     70.53% # Class of committed instruction
system.switch_cpus_10.commit.op_class_0::SimdFloatReduceCmp            0      0.00%     70.53% # Class of committed instruction
system.switch_cpus_10.commit.op_class_0::SimdAes            0      0.00%     70.53% # Class of committed instruction
system.switch_cpus_10.commit.op_class_0::SimdAesMix            0      0.00%     70.53% # Class of committed instruction
system.switch_cpus_10.commit.op_class_0::SimdSha1Hash            0      0.00%     70.53% # Class of committed instruction
system.switch_cpus_10.commit.op_class_0::SimdSha1Hash2            0      0.00%     70.53% # Class of committed instruction
system.switch_cpus_10.commit.op_class_0::SimdSha256Hash            0      0.00%     70.53% # Class of committed instruction
system.switch_cpus_10.commit.op_class_0::SimdSha256Hash2            0      0.00%     70.53% # Class of committed instruction
system.switch_cpus_10.commit.op_class_0::SimdShaSigma2            0      0.00%     70.53% # Class of committed instruction
system.switch_cpus_10.commit.op_class_0::SimdShaSigma3            0      0.00%     70.53% # Class of committed instruction
system.switch_cpus_10.commit.op_class_0::SimdPredAlu            0      0.00%     70.53% # Class of committed instruction
system.switch_cpus_10.commit.op_class_0::MemRead     11352023     12.60%     83.12% # Class of committed instruction
system.switch_cpus_10.commit.op_class_0::MemWrite      6846747      7.60%     90.72% # Class of committed instruction
system.switch_cpus_10.commit.op_class_0::FloatMemRead      7015820      7.78%     98.50% # Class of committed instruction
system.switch_cpus_10.commit.op_class_0::FloatMemWrite      1349642      1.50%    100.00% # Class of committed instruction
system.switch_cpus_10.commit.op_class_0::IprAccess            0      0.00%    100.00% # Class of committed instruction
system.switch_cpus_10.commit.op_class_0::InstPrefetch            0      0.00%    100.00% # Class of committed instruction
system.switch_cpus_10.commit.op_class_0::total     90129864                       # Class of committed instruction
system.switch_cpus_10.commit.refs            26564232                       # Number of memory references committed
system.switch_cpus_10.commit.swp_count              0                       # Number of s/w prefetches committed
system.switch_cpus_10.commit.vec_insts              0                       # Number of committed Vector instructions.
system.switch_cpus_10.committedInsts         50000000                       # Number of Instructions Simulated
system.switch_cpus_10.committedOps           90129864                       # Number of Ops (including micro ops) Simulated
system.switch_cpus_10.cpi                    0.803151                       # CPI: Cycles Per Instruction
system.switch_cpus_10.cpi_total              0.803151                       # CPI: Total CPI of All Threads
system.switch_cpus_10.decode.BlockedCycles      2392085                       # Number of cycles decode is blocked
system.switch_cpus_10.decode.DecodedInsts    114461552                       # Number of instructions handled by decode
system.switch_cpus_10.decode.IdleCycles      19056497                       # Number of cycles decode is idle
system.switch_cpus_10.decode.RunCycles       17861449                       # Number of cycles decode is running
system.switch_cpus_10.decode.SquashCycles       691524                       # Number of cycles decode is squashing
system.switch_cpus_10.decode.UnblockCycles       154931                       # Number of cycles decode is unblocking
system.switch_cpus_10.dtb.rdAccesses         20345356                       # TLB accesses on read requests
system.switch_cpus_10.dtb.rdMisses             114570                       # TLB misses on read requests
system.switch_cpus_10.dtb.wrAccesses          9150579                       # TLB accesses on write requests
system.switch_cpus_10.dtb.wrMisses              19171                       # TLB misses on write requests
system.switch_cpus_10.fetch.Branches         11602611                       # Number of branches that fetch encountered
system.switch_cpus_10.fetch.CacheLines        9411015                       # Number of cache lines fetched
system.switch_cpus_10.fetch.Cycles           19737760                       # Number of cycles fetch has run and was not squashing or blocked
system.switch_cpus_10.fetch.IcacheSquashes       304339                       # Number of outstanding Icache misses that were squashed
system.switch_cpus_10.fetch.IcacheWaitRetryStallCycles          201                       # Number of stall cycles due to full MSHR
system.switch_cpus_10.fetch.Insts            65154523                       # Number of instructions fetch has processed
system.switch_cpus_10.fetch.MiscStallCycles           37                       # Number of cycles fetch has spent waiting on interrupts, or bad addresses, or out of MSHRs
system.switch_cpus_10.fetch.PendingTrapStallCycles           70                       # Number of stall cycles due to pending traps
system.switch_cpus_10.fetch.SquashCycles      1383048                       # Number of cycles fetch has spent squashing
system.switch_cpus_10.fetch.branchRate       0.288927                       # Number of branch fetches per cycle
system.switch_cpus_10.fetch.icacheStallCycles     19726899                       # Number of cycles fetch is stalled on an Icache miss
system.switch_cpus_10.fetch.predictedBranches      5938654                       # Number of branches that fetch has predicted taken
system.switch_cpus_10.fetch.rate             1.622473                       # Number of inst fetches per cycle
system.switch_cpus_10.fetch.rateDist::samples     40156491                       # Number of instructions fetched each cycle (Total)
system.switch_cpus_10.fetch.rateDist::mean     2.934553                       # Number of instructions fetched each cycle (Total)
system.switch_cpus_10.fetch.rateDist::stdev     3.507991                       # Number of instructions fetched each cycle (Total)
system.switch_cpus_10.fetch.rateDist::underflows            0      0.00%      0.00% # Number of instructions fetched each cycle (Total)
system.switch_cpus_10.fetch.rateDist::0      21457945     53.44%     53.44% # Number of instructions fetched each cycle (Total)
system.switch_cpus_10.fetch.rateDist::1        757713      1.89%     55.32% # Number of instructions fetched each cycle (Total)
system.switch_cpus_10.fetch.rateDist::2       1235010      3.08%     58.40% # Number of instructions fetched each cycle (Total)
system.switch_cpus_10.fetch.rateDist::3        845266      2.10%     60.50% # Number of instructions fetched each cycle (Total)
system.switch_cpus_10.fetch.rateDist::4       2210993      5.51%     66.01% # Number of instructions fetched each cycle (Total)
system.switch_cpus_10.fetch.rateDist::5        641013      1.60%     67.61% # Number of instructions fetched each cycle (Total)
system.switch_cpus_10.fetch.rateDist::6       1659041      4.13%     71.74% # Number of instructions fetched each cycle (Total)
system.switch_cpus_10.fetch.rateDist::7        721523      1.80%     73.53% # Number of instructions fetched each cycle (Total)
system.switch_cpus_10.fetch.rateDist::8      10627987     26.47%    100.00% # Number of instructions fetched each cycle (Total)
system.switch_cpus_10.fetch.rateDist::overflows            0      0.00%    100.00% # Number of instructions fetched each cycle (Total)
system.switch_cpus_10.fetch.rateDist::min_value            0                       # Number of instructions fetched each cycle (Total)
system.switch_cpus_10.fetch.rateDist::max_value            8                       # Number of instructions fetched each cycle (Total)
system.switch_cpus_10.fetch.rateDist::total     40156491                       # Number of instructions fetched each cycle (Total)
system.switch_cpus_10.fp_regfile_reads       29388068                       # number of floating regfile reads
system.switch_cpus_10.fp_regfile_writes      16950961                       # number of floating regfile writes
system.switch_cpus_10.idleCycles                 1057                       # Total number of cycles that the CPU has spent unscheduled due to idling
system.switch_cpus_10.iew.branchMispredicts       800098                       # Number of branch mispredicts detected at execute
system.switch_cpus_10.iew.exec_branches       9382171                       # Number of branches executed
system.switch_cpus_10.iew.exec_nop                  0                       # number of nop insts executed
system.switch_cpus_10.iew.exec_rate          2.488482                       # Inst execution rate
system.switch_cpus_10.iew.exec_refs          29485383                       # number of memory reference insts executed
system.switch_cpus_10.iew.exec_stores         9150579                       # Number of stores executed
system.switch_cpus_10.iew.exec_swp                  0                       # number of swp insts executed
system.switch_cpus_10.iew.iewBlockCycles      1722737                       # Number of cycles IEW is blocking
system.switch_cpus_10.iew.iewDispLoadInsts     21383698                       # Number of dispatched load instructions
system.switch_cpus_10.iew.iewDispNonSpecInsts            0                       # Number of dispatched non-speculative instructions
system.switch_cpus_10.iew.iewDispSquashedInsts       555392                       # Number of squashed instructions skipped by dispatch
system.switch_cpus_10.iew.iewDispStoreInsts      9828316                       # Number of dispatched store instructions
system.switch_cpus_10.iew.iewDispatchedInsts    106046196                       # Number of instructions dispatched to IQ
system.switch_cpus_10.iew.iewExecLoadInsts     20334804                       # Number of load instructions executed
system.switch_cpus_10.iew.iewExecSquashedInsts      1379396                       # Number of squashed instructions skipped in execute
system.switch_cpus_10.iew.iewExecutedInsts     99931326                       # Number of executed instructions
system.switch_cpus_10.iew.iewIQFullEvents         5260                       # Number of times the IQ has become full, causing a stall
system.switch_cpus_10.iew.iewIdleCycles             0                       # Number of cycles IEW is idle
system.switch_cpus_10.iew.iewLSQFullEvents        15418                       # Number of times the LSQ has become full, causing a stall
system.switch_cpus_10.iew.iewSquashCycles       691524                       # Number of cycles IEW is squashing
system.switch_cpus_10.iew.iewUnblockCycles        22507                       # Number of cycles IEW is unblocking
system.switch_cpus_10.iew.lsq.thread0.blockedLoads            0                       # Number of blocked loads due to partial load-store forwarding
system.switch_cpus_10.iew.lsq.thread0.cacheBlocked         2926                       # Number of times an access to memory failed due to the cache being blocked
system.switch_cpus_10.iew.lsq.thread0.forwLoads      2857957                       # Number of loads that had data forwarded from stores
system.switch_cpus_10.iew.lsq.thread0.ignoredResponses        21414                       # Number of memory responses ignored because the instruction is squashed
system.switch_cpus_10.iew.lsq.thread0.invAddrLoads            0                       # Number of loads ignored due to an invalid address
system.switch_cpus_10.iew.lsq.thread0.invAddrSwpfs            0                       # Number of software prefetches ignored due to an invalid address
system.switch_cpus_10.iew.lsq.thread0.memOrderViolation         2331                       # Number of memory ordering violations
system.switch_cpus_10.iew.lsq.thread0.rescheduledLoads         7542                       # Number of loads that were rescheduled
system.switch_cpus_10.iew.lsq.thread0.squashedLoads      3015847                       # Number of loads squashed
system.switch_cpus_10.iew.lsq.thread0.squashedStores      1631927                       # Number of stores squashed
system.switch_cpus_10.iew.memOrderViolationEvents         2331                       # Number of memory order violations
system.switch_cpus_10.iew.predictedNotTakenIncorrect       628307                       # Number of branches that were predicted not taken incorrectly
system.switch_cpus_10.iew.predictedTakenIncorrect       171791                       # Number of branches that were predicted taken incorrectly
system.switch_cpus_10.iew.wb_consumers      111123233                       # num instructions consuming a value
system.switch_cpus_10.iew.wb_count           98894349                       # cumulative count of insts written-back
system.switch_cpus_10.iew.wb_fanout          0.610906                       # average fanout of values written-back
system.switch_cpus_10.iew.wb_producers       67885856                       # num instructions producing a value
system.switch_cpus_10.iew.wb_rate            2.462659                       # insts written-back per cycle
system.switch_cpus_10.iew.wb_sent            99084777                       # cumulative count of insts sent to commit
system.switch_cpus_10.int_regfile_reads     138297773                       # number of integer regfile reads
system.switch_cpus_10.int_regfile_writes     62114116                       # number of integer regfile writes
system.switch_cpus_10.ipc                    1.245096                       # IPC: Instructions Per Cycle
system.switch_cpus_10.ipc_total              1.245096                       # IPC: Total IPC of All Threads
system.switch_cpus_10.iq.FU_type_0::No_OpClass       631051      0.62%      0.62% # Type of FU issued
system.switch_cpus_10.iq.FU_type_0::IntAlu     60917985     60.13%     60.75% # Type of FU issued
system.switch_cpus_10.iq.FU_type_0::IntMult       214564      0.21%     60.96% # Type of FU issued
system.switch_cpus_10.iq.FU_type_0::IntDiv            0      0.00%     60.96% # Type of FU issued
system.switch_cpus_10.iq.FU_type_0::FloatAdd       302547      0.30%     61.26% # Type of FU issued
system.switch_cpus_10.iq.FU_type_0::FloatCmp            0      0.00%     61.26% # Type of FU issued
system.switch_cpus_10.iq.FU_type_0::FloatCvt            0      0.00%     61.26% # Type of FU issued
system.switch_cpus_10.iq.FU_type_0::FloatMult            0      0.00%     61.26% # Type of FU issued
system.switch_cpus_10.iq.FU_type_0::FloatMultAcc            0      0.00%     61.26% # Type of FU issued
system.switch_cpus_10.iq.FU_type_0::FloatDiv            0      0.00%     61.26% # Type of FU issued
system.switch_cpus_10.iq.FU_type_0::FloatMisc            0      0.00%     61.26% # Type of FU issued
system.switch_cpus_10.iq.FU_type_0::FloatSqrt            0      0.00%     61.26% # Type of FU issued
system.switch_cpus_10.iq.FU_type_0::SimdAdd            0      0.00%     61.26% # Type of FU issued
system.switch_cpus_10.iq.FU_type_0::SimdAddAcc            0      0.00%     61.26% # Type of FU issued
system.switch_cpus_10.iq.FU_type_0::SimdAlu       633413      0.63%     61.89% # Type of FU issued
system.switch_cpus_10.iq.FU_type_0::SimdCmp            0      0.00%     61.89% # Type of FU issued
system.switch_cpus_10.iq.FU_type_0::SimdCvt            0      0.00%     61.89% # Type of FU issued
system.switch_cpus_10.iq.FU_type_0::SimdMisc        18828      0.02%     61.91% # Type of FU issued
system.switch_cpus_10.iq.FU_type_0::SimdMult            0      0.00%     61.91% # Type of FU issued
system.switch_cpus_10.iq.FU_type_0::SimdMultAcc            0      0.00%     61.91% # Type of FU issued
system.switch_cpus_10.iq.FU_type_0::SimdShift            0      0.00%     61.91% # Type of FU issued
system.switch_cpus_10.iq.FU_type_0::SimdShiftAcc            0      0.00%     61.91% # Type of FU issued
system.switch_cpus_10.iq.FU_type_0::SimdDiv            0      0.00%     61.91% # Type of FU issued
system.switch_cpus_10.iq.FU_type_0::SimdSqrt            0      0.00%     61.91% # Type of FU issued
system.switch_cpus_10.iq.FU_type_0::SimdFloatAdd      3462503      3.42%     65.32% # Type of FU issued
system.switch_cpus_10.iq.FU_type_0::SimdFloatAlu            0      0.00%     65.32% # Type of FU issued
system.switch_cpus_10.iq.FU_type_0::SimdFloatCmp        11568      0.01%     65.34% # Type of FU issued
system.switch_cpus_10.iq.FU_type_0::SimdFloatCvt      1502544      1.48%     66.82% # Type of FU issued
system.switch_cpus_10.iq.FU_type_0::SimdFloatDiv       129657      0.13%     66.95% # Type of FU issued
system.switch_cpus_10.iq.FU_type_0::SimdFloatMisc            0      0.00%     66.95% # Type of FU issued
system.switch_cpus_10.iq.FU_type_0::SimdFloatMult      3477478      3.43%     70.38% # Type of FU issued
system.switch_cpus_10.iq.FU_type_0::SimdFloatMultAcc            0      0.00%     70.38% # Type of FU issued
system.switch_cpus_10.iq.FU_type_0::SimdFloatSqrt        14409      0.01%     70.39% # Type of FU issued
system.switch_cpus_10.iq.FU_type_0::SimdReduceAdd            0      0.00%     70.39% # Type of FU issued
system.switch_cpus_10.iq.FU_type_0::SimdReduceAlu            0      0.00%     70.39% # Type of FU issued
system.switch_cpus_10.iq.FU_type_0::SimdReduceCmp            0      0.00%     70.39% # Type of FU issued
system.switch_cpus_10.iq.FU_type_0::SimdFloatReduceAdd            0      0.00%     70.39% # Type of FU issued
system.switch_cpus_10.iq.FU_type_0::SimdFloatReduceCmp            0      0.00%     70.39% # Type of FU issued
system.switch_cpus_10.iq.FU_type_0::SimdAes            0      0.00%     70.39% # Type of FU issued
system.switch_cpus_10.iq.FU_type_0::SimdAesMix            0      0.00%     70.39% # Type of FU issued
system.switch_cpus_10.iq.FU_type_0::SimdSha1Hash            0      0.00%     70.39% # Type of FU issued
system.switch_cpus_10.iq.FU_type_0::SimdSha1Hash2            0      0.00%     70.39% # Type of FU issued
system.switch_cpus_10.iq.FU_type_0::SimdSha256Hash            0      0.00%     70.39% # Type of FU issued
system.switch_cpus_10.iq.FU_type_0::SimdSha256Hash2            0      0.00%     70.39% # Type of FU issued
system.switch_cpus_10.iq.FU_type_0::SimdShaSigma2            0      0.00%     70.39% # Type of FU issued
system.switch_cpus_10.iq.FU_type_0::SimdShaSigma3            0      0.00%     70.39% # Type of FU issued
system.switch_cpus_10.iq.FU_type_0::SimdPredAlu            0      0.00%     70.39% # Type of FU issued
system.switch_cpus_10.iq.FU_type_0::MemRead     12739036     12.57%     82.97% # Type of FU issued
system.switch_cpus_10.iq.FU_type_0::MemWrite      7892852      7.79%     90.76% # Type of FU issued
system.switch_cpus_10.iq.FU_type_0::FloatMemRead      7946495      7.84%     98.60% # Type of FU issued
system.switch_cpus_10.iq.FU_type_0::FloatMemWrite      1415795      1.40%    100.00% # Type of FU issued
system.switch_cpus_10.iq.FU_type_0::IprAccess            0      0.00%    100.00% # Type of FU issued
system.switch_cpus_10.iq.FU_type_0::InstPrefetch            0      0.00%    100.00% # Type of FU issued
system.switch_cpus_10.iq.FU_type_0::total    101310725                       # Type of FU issued
system.switch_cpus_10.iq.fp_alu_accesses     20829384                       # Number of floating point alu accesses
system.switch_cpus_10.iq.fp_inst_queue_reads     40987109                       # Number of floating instruction queue reads
system.switch_cpus_10.iq.fp_inst_queue_wakeup_accesses     19552974                       # Number of floating instruction queue wakeup accesses
system.switch_cpus_10.iq.fp_inst_queue_writes     23401231                       # Number of floating instruction queue writes
system.switch_cpus_10.iq.fu_busy_cnt          1135832                       # FU busy when requested
system.switch_cpus_10.iq.fu_busy_rate        0.011211                       # FU busy rate (busy events/executed inst)
system.switch_cpus_10.iq.fu_full::No_OpClass            0      0.00%      0.00% # attempts to use FU when none available
system.switch_cpus_10.iq.fu_full::IntAlu       185559     16.34%     16.34% # attempts to use FU when none available
system.switch_cpus_10.iq.fu_full::IntMult            0      0.00%     16.34% # attempts to use FU when none available
system.switch_cpus_10.iq.fu_full::IntDiv            0      0.00%     16.34% # attempts to use FU when none available
system.switch_cpus_10.iq.fu_full::FloatAdd         2773      0.24%     16.58% # attempts to use FU when none available
system.switch_cpus_10.iq.fu_full::FloatCmp            0      0.00%     16.58% # attempts to use FU when none available
system.switch_cpus_10.iq.fu_full::FloatCvt            0      0.00%     16.58% # attempts to use FU when none available
system.switch_cpus_10.iq.fu_full::FloatMult            0      0.00%     16.58% # attempts to use FU when none available
system.switch_cpus_10.iq.fu_full::FloatMultAcc            0      0.00%     16.58% # attempts to use FU when none available
system.switch_cpus_10.iq.fu_full::FloatDiv            0      0.00%     16.58% # attempts to use FU when none available
system.switch_cpus_10.iq.fu_full::FloatMisc            0      0.00%     16.58% # attempts to use FU when none available
system.switch_cpus_10.iq.fu_full::FloatSqrt            0      0.00%     16.58% # attempts to use FU when none available
system.switch_cpus_10.iq.fu_full::SimdAdd            0      0.00%     16.58% # attempts to use FU when none available
system.switch_cpus_10.iq.fu_full::SimdAddAcc            0      0.00%     16.58% # attempts to use FU when none available
system.switch_cpus_10.iq.fu_full::SimdAlu         3986      0.35%     16.93% # attempts to use FU when none available
system.switch_cpus_10.iq.fu_full::SimdCmp            0      0.00%     16.93% # attempts to use FU when none available
system.switch_cpus_10.iq.fu_full::SimdCvt            0      0.00%     16.93% # attempts to use FU when none available
system.switch_cpus_10.iq.fu_full::SimdMisc            5      0.00%     16.93% # attempts to use FU when none available
system.switch_cpus_10.iq.fu_full::SimdMult            0      0.00%     16.93% # attempts to use FU when none available
system.switch_cpus_10.iq.fu_full::SimdMultAcc            0      0.00%     16.93% # attempts to use FU when none available
system.switch_cpus_10.iq.fu_full::SimdShift            0      0.00%     16.93% # attempts to use FU when none available
system.switch_cpus_10.iq.fu_full::SimdShiftAcc            0      0.00%     16.93% # attempts to use FU when none available
system.switch_cpus_10.iq.fu_full::SimdDiv            0      0.00%     16.93% # attempts to use FU when none available
system.switch_cpus_10.iq.fu_full::SimdSqrt            0      0.00%     16.93% # attempts to use FU when none available
system.switch_cpus_10.iq.fu_full::SimdFloatAdd        60095      5.29%     22.22% # attempts to use FU when none available
system.switch_cpus_10.iq.fu_full::SimdFloatAlu            0      0.00%     22.22% # attempts to use FU when none available
system.switch_cpus_10.iq.fu_full::SimdFloatCmp            0      0.00%     22.22% # attempts to use FU when none available
system.switch_cpus_10.iq.fu_full::SimdFloatCvt         8455      0.74%     22.97% # attempts to use FU when none available
system.switch_cpus_10.iq.fu_full::SimdFloatDiv            0      0.00%     22.97% # attempts to use FU when none available
system.switch_cpus_10.iq.fu_full::SimdFloatMisc            0      0.00%     22.97% # attempts to use FU when none available
system.switch_cpus_10.iq.fu_full::SimdFloatMult        28431      2.50%     25.47% # attempts to use FU when none available
system.switch_cpus_10.iq.fu_full::SimdFloatMultAcc            0      0.00%     25.47% # attempts to use FU when none available
[...]
system.cpu1.l2cache.ReadSharedReq_avg_miss_latency::total 70035.603462                       # average ReadSharedReq miss latency
system.cpu1.l2cache.ReadSharedReq_mshr_misses::.switch_cpus1.data         1210                       # number of ReadSharedReq MSHR misses
system.cpu1.l2cache.ReadSharedReq_mshr_misses::.switch_cpus_11.data        21320                       # number of ReadSharedReq MSHR misses
system.cpu1.l2cache.ReadSharedReq_mshr_misses::total        22530                       # number of ReadSharedReq MSHR misses
system.cpu1.l2cache.ReadSharedReq_mshr_miss_latency::.switch_cpus1.data     84139341                       # number of ReadSharedReq MSHR miss cycles
system.cpu1.l2cache.ReadSharedReq_mshr_miss_latency::.switch_cpus_11.data   1484367795                       # number of ReadSharedReq MSHR miss cycles
system.cpu1.l2cache.ReadSharedReq_mshr_miss_latency::total   1568507136                       # number of ReadSharedReq MSHR miss cycles
system.cpu1.l2cache.ReadSharedReq_mshr_miss_rate::.switch_cpus1.data     0.932922                       # mshr miss rate for ReadSharedReq accesses
system.cpu1.l2cache.ReadSharedReq_mshr_miss_rate::.switch_cpus_11.data     0.527932                       # mshr miss rate for ReadSharedReq accesses
system.cpu1.l2cache.ReadSharedReq_mshr_miss_rate::total     0.540534                       # mshr miss rate for ReadSharedReq accesses
system.cpu1.l2cache.ReadSharedReq_avg_mshr_miss_latency::.switch_cpus1.data 69536.645455                       # average ReadSharedReq mshr miss latency
system.cpu1.l2cache.ReadSharedReq_avg_mshr_miss_latency::.switch_cpus_11.data 69623.254925                       # average ReadSharedReq mshr miss latency
system.cpu1.l2cache.ReadSharedReq_avg_mshr_miss_latency::total 69618.603462                       # average ReadSharedReq mshr miss latency
system.cpu1.l2cache.tags.pwrStateResidencyTicks::UNDEFINED 1312417050198                       # Cumulative time (in ticks) in various power states
system.cpu1.l2cache.tags.tagsinuse          51.841375                       # Cycle average of tags in use
system.cpu1.l2cache.tags.total_refs             83327                       # Total number of references to valid blocks.
system.cpu1.l2cache.tags.sampled_refs           22840                       # Sample count of references to valid blocks.
system.cpu1.l2cache.tags.avg_refs            3.648292                       # Average number of references to valid blocks.
system.cpu1.l2cache.tags.warmup_cycle    1293351708033                       # Cycle when the warmup percentage was hit.
system.cpu1.l2cache.tags.occ_blocks::.cpu1.inst     0.003611                       # Average occupied blocks per requestor
system.cpu1.l2cache.tags.occ_blocks::.cpu1.data     0.014527                       # Average occupied blocks per requestor
system.cpu1.l2cache.tags.occ_blocks::.switch_cpus1.inst     0.672646                       # Average occupied blocks per requestor
system.cpu1.l2cache.tags.occ_blocks::.switch_cpus1.data     8.532080                       # Average occupied blocks per requestor
system.cpu1.l2cache.tags.occ_blocks::.switch_cpus_11.inst     0.178664                       # Average occupied blocks per requestor
system.cpu1.l2cache.tags.occ_blocks::.switch_cpus_11.data    42.439848                       # Average occupied blocks per requestor
system.cpu1.l2cache.tags.occ_percent::.cpu1.inst     0.000001                       # Average percentage of cache occupancy
system.cpu1.l2cache.tags.occ_percent::.cpu1.data     0.000004                       # Average percentage of cache occupancy
system.cpu1.l2cache.tags.occ_percent::.switch_cpus1.inst     0.000164                       # Average percentage of cache occupancy
system.cpu1.l2cache.tags.occ_percent::.switch_cpus1.data     0.002083                       # Average percentage of cache occupancy
system.cpu1.l2cache.tags.occ_percent::.switch_cpus_11.inst     0.000044                       # Average percentage of cache occupancy
system.cpu1.l2cache.tags.occ_percent::.switch_cpus_11.data     0.010361                       # Average percentage of cache occupancy
system.cpu1.l2cache.tags.occ_percent::total     0.012657                       # Average percentage of cache occupancy
system.cpu1.l2cache.tags.occ_task_id_blocks::1024         4096                       # Occupied blocks per task id
system.cpu1.l2cache.tags.age_task_id_blocks_1024::0           22                       # Occupied blocks per task id
system.cpu1.l2cache.tags.age_task_id_blocks_1024::1           83                       # Occupied blocks per task id
system.cpu1.l2cache.tags.age_task_id_blocks_1024::2         1254                       # Occupied blocks per task id
system.cpu1.l2cache.tags.age_task_id_blocks_1024::3         2229                       # Occupied blocks per task id
system.cpu1.l2cache.tags.age_task_id_blocks_1024::4          508                       # Occupied blocks per task id
system.cpu1.l2cache.tags.occ_task_id_percent::1024            1                       # Percentage of cache occupancy per task id
system.cpu1.l2cache.tags.tag_accesses         1356136                       # Number of tag accesses
system.cpu1.l2cache.tags.data_accesses        1356136                       # Number of data accesses
system.cpu1.toL2Bus.pwrStateResidencyTicks::UNDEFINED 1312417050198                       # Cumulative time (in ticks) in various power states
system.cpu1.toL2Bus.trans_dist::ReadResp        41967                       # Transaction distribution
system.cpu1.toL2Bus.trans_dist::WritebackDirty          136                       # Transaction distribution
system.cpu1.toL2Bus.trans_dist::CleanEvict        59890                       # Transaction distribution
system.cpu1.toL2Bus.trans_dist::ReadExReq          112                       # Transaction distribution
system.cpu1.toL2Bus.trans_dist::ReadExResp          112                       # Transaction distribution
system.cpu1.toL2Bus.trans_dist::ReadCleanReq          286                       # Transaction distribution
system.cpu1.toL2Bus.trans_dist::ReadSharedReq        41681                       # Transaction distribution
system.cpu1.toL2Bus.pkt_count_system.cpu1.icache.mem_side::system.cpu1.l2cache.cpu_side          572                       # Packet count per connected master and slave (bytes)
system.cpu1.toL2Bus.pkt_count_system.cpu1.dcache.mem_side::system.cpu1.l2cache.cpu_side       124867                       # Packet count per connected master and slave (bytes)
system.cpu1.toL2Bus.pkt_count::total           125439                       # Packet count per connected master and slave (bytes)
system.cpu1.toL2Bus.pkt_size_system.cpu1.icache.mem_side::system.cpu1.l2cache.cpu_side        18304                       # Cumulative packet size per connected master and slave (bytes)
system.cpu1.toL2Bus.pkt_size_system.cpu1.dcache.mem_side::system.cpu1.l2cache.cpu_side      2683008                       # Cumulative packet size per connected master and slave (bytes)
system.cpu1.toL2Bus.pkt_size::total           2701312                       # Cumulative packet size per connected master and slave (bytes)
system.cpu1.toL2Bus.snoops                      18745                       # Total snoops (count)
system.cpu1.toL2Bus.snoopTraffic                  448                       # Total snoop traffic (bytes)
system.cpu1.toL2Bus.snoop_fanout::samples        60824                       # Request fanout histogram
system.cpu1.toL2Bus.snoop_fanout::mean       0.005919                       # Request fanout histogram
system.cpu1.toL2Bus.snoop_fanout::stdev      0.076706                       # Request fanout histogram
system.cpu1.toL2Bus.snoop_fanout::underflows            0      0.00%      0.00% # Request fanout histogram
system.cpu1.toL2Bus.snoop_fanout::0             60464     99.41%     99.41% # Request fanout histogram
system.cpu1.toL2Bus.snoop_fanout::1               360      0.59%    100.00% # Request fanout histogram
system.cpu1.toL2Bus.snoop_fanout::2                 0      0.00%    100.00% # Request fanout histogram
system.cpu1.toL2Bus.snoop_fanout::3                 0      0.00%    100.00% # Request fanout histogram
system.cpu1.toL2Bus.snoop_fanout::4                 0      0.00%    100.00% # Request fanout histogram
system.cpu1.toL2Bus.snoop_fanout::overflows            0      0.00%    100.00% # Request fanout histogram
system.cpu1.toL2Bus.snoop_fanout::min_value            0                       # Request fanout histogram
system.cpu1.toL2Bus.snoop_fanout::max_value            1                       # Request fanout histogram
system.cpu1.toL2Bus.snoop_fanout::total         60824                       # Request fanout histogram
system.cpu1.toL2Bus.reqLayer0.occupancy      34867872                       # Layer occupancy (ticks)
system.cpu1.toL2Bus.reqLayer0.utilization          0.2                       # Layer utilization (%)
system.cpu1.toL2Bus.respLayer1.occupancy     52281792                       # Layer occupancy (ticks)
system.cpu1.toL2Bus.respLayer1.utilization          0.3                       # Layer utilization (%)
system.cpu1.toL2Bus.respLayer0.occupancy       356535                       # Layer occupancy (ticks)
system.cpu1.toL2Bus.respLayer0.utilization          0.0                       # Layer utilization (%)
system.switch_cpus_10.pwrStateResidencyTicks::OFF  19065342582                       # Cumulative time (in ticks) in various power states
system.switch_cpus_10.dtb.walker.pwrStateResidencyTicks::UNDEFINED 1312417050198                       # Cumulative time (in ticks) in various power states
system.switch_cpus_10.itb.walker.pwrStateResidencyTicks::UNDEFINED 1312417050198                       # Cumulative time (in ticks) in various power states
system.switch_cpus_11.pwrStateResidencyTicks::OFF  19065342582                       # Cumulative time (in ticks) in various power states
system.switch_cpus_11.dtb.walker.pwrStateResidencyTicks::UNDEFINED 1312417050198                       # Cumulative time (in ticks) in various power states
system.switch_cpus_11.itb.walker.pwrStateResidencyTicks::UNDEFINED 1312417050198                       # Cumulative time (in ticks) in various power states
system.cpu_voltage_domain.voltage                   1                       # Voltage in Volts
system.switch_cpus1.numPwrStateTransitions            1                       # Number of power state transitions
system.switch_cpus1.pwrStateResidencyTicks::UNDEFINED 1293351707616                       # Cumulative time (in ticks) in various power states
system.switch_cpus1.pwrStateResidencyTicks::OFF  19065342582                       # Cumulative time (in ticks) in various power states
system.switch_cpus1.dtb.walker.pwrStateResidencyTicks::UNDEFINED 1312417050198                       # Cumulative time (in ticks) in various power states
system.switch_cpus1.itb.walker.pwrStateResidencyTicks::UNDEFINED 1312417050198                       # Cumulative time (in ticks) in various power states
system.mem_ctrls.pwrStateResidencyTicks::UNDEFINED 1312417050198                       # Cumulative time (in ticks) in various power states
system.mem_ctrls.bytes_read::.cpu0.inst            64                       # Number of bytes read from this memory
system.mem_ctrls.bytes_read::.cpu0.data            64                       # Number of bytes read from this memory
system.mem_ctrls.bytes_read::.cpu1.inst            64                       # Number of bytes read from this memory
system.mem_ctrls.bytes_read::.cpu1.data            64                       # Number of bytes read from this memory
system.mem_ctrls.bytes_read::.switch_cpus0.inst        22336                       # Number of bytes read from this memory
system.mem_ctrls.bytes_read::.switch_cpus0.data        34624                       # Number of bytes read from this memory
system.mem_ctrls.bytes_read::.switch_cpus1.inst        12672                       # Number of bytes read from this memory
system.mem_ctrls.bytes_read::.switch_cpus1.data        78784                       # Number of bytes read from this memory
system.mem_ctrls.bytes_read::.switch_cpus_10.inst        13184                       # Number of bytes read from this memory
system.mem_ctrls.bytes_read::.switch_cpus_10.data        10560                       # Number of bytes read from this memory
system.mem_ctrls.bytes_read::.switch_cpus_11.inst         5568                       # Number of bytes read from this memory
system.mem_ctrls.bytes_read::.switch_cpus_11.data      1363904                       # Number of bytes read from this memory
system.mem_ctrls.bytes_read::total            1541888                       # Number of bytes read from this memory
system.mem_ctrls.bytes_inst_read::.cpu0.inst           64                       # Number of instructions bytes read from this memory
system.mem_ctrls.bytes_inst_read::.cpu1.inst           64                       # Number of instructions bytes read from this memory
system.mem_ctrls.bytes_inst_read::.switch_cpus0.inst        22336                       # Number of instructions bytes read from this memory
system.mem_ctrls.bytes_inst_read::.switch_cpus1.inst        12672                       # Number of instructions bytes read from this memory
system.mem_ctrls.bytes_inst_read::.switch_cpus_10.inst        13184                       # Number of instructions bytes read from this memory
system.mem_ctrls.bytes_inst_read::.switch_cpus_11.inst         5568                       # Number of instructions bytes read from this memory
system.mem_ctrls.bytes_inst_read::total         53888                       # Number of instructions bytes read from this memory
system.mem_ctrls.num_reads::.cpu0.inst              1                       # Number of read requests responded to by this memory
system.mem_ctrls.num_reads::.cpu0.data              1                       # Number of read requests responded to by this memory
system.mem_ctrls.num_reads::.cpu1.inst              1                       # Number of read requests responded to by this memory
system.mem_ctrls.num_reads::.cpu1.data              1                       # Number of read requests responded to by this memory
system.mem_ctrls.num_reads::.switch_cpus0.inst          349                       # Number of read requests responded to by this memory
system.mem_ctrls.num_reads::.switch_cpus0.data          541                       # Number of read requests responded to by this memory
system.mem_ctrls.num_reads::.switch_cpus1.inst          198                       # Number of read requests responded to by this memory
system.mem_ctrls.num_reads::.switch_cpus1.data         1231                       # Number of read requests responded to by this memory
system.mem_ctrls.num_reads::.switch_cpus_10.inst          206                       # Number of read requests responded to by this memory
system.mem_ctrls.num_reads::.switch_cpus_10.data          165                       # Number of read requests responded to by this memory
system.mem_ctrls.num_reads::.switch_cpus_11.inst           87                       # Number of read requests responded to by this memory
system.mem_ctrls.num_reads::.switch_cpus_11.data        21311                       # Number of read requests responded to by this memory
system.mem_ctrls.num_reads::total               24092                       # Number of read requests responded to by this memory
system.mem_ctrls.bw_read::.cpu0.inst             3357                       # Total read bandwidth from this memory (bytes/s)
system.mem_ctrls.bw_read::.cpu0.data             3357                       # Total read bandwidth from this memory (bytes/s)
system.mem_ctrls.bw_read::.cpu1.inst             3357                       # Total read bandwidth from this memory (bytes/s)
system.mem_ctrls.bw_read::.cpu1.data             3357                       # Total read bandwidth from this memory (bytes/s)
system.mem_ctrls.bw_read::.switch_cpus0.inst      1171550                       # Total read bandwidth from this memory (bytes/s)
system.mem_ctrls.bw_read::.switch_cpus0.data      1816070                       # Total read bandwidth from this memory (bytes/s)
system.mem_ctrls.bw_read::.switch_cpus1.inst       664662                       # Total read bandwidth from this memory (bytes/s)
system.mem_ctrls.bw_read::.switch_cpus1.data      4132315                       # Total read bandwidth from this memory (bytes/s)
system.mem_ctrls.bw_read::.switch_cpus_10.inst       691517                       # Total read bandwidth from this memory (bytes/s)
system.mem_ctrls.bw_read::.switch_cpus_10.data       553885                       # Total read bandwidth from this memory (bytes/s)
system.mem_ctrls.bw_read::.switch_cpus_11.inst       292048                       # Total read bandwidth from this memory (bytes/s)
system.mem_ctrls.bw_read::.switch_cpus_11.data     71538395                       # Total read bandwidth from this memory (bytes/s)
system.mem_ctrls.bw_read::total              80873868                       # Total read bandwidth from this memory (bytes/s)
system.mem_ctrls.bw_inst_read::.cpu0.inst         3357                       # Instruction read bandwidth from this memory (bytes/s)
system.mem_ctrls.bw_inst_read::.cpu1.inst         3357                       # Instruction read bandwidth from this memory (bytes/s)
system.mem_ctrls.bw_inst_read::.switch_cpus0.inst      1171550                       # Instruction read bandwidth from this memory (bytes/s)
system.mem_ctrls.bw_inst_read::.switch_cpus1.inst       664662                       # Instruction read bandwidth from this memory (bytes/s)
system.mem_ctrls.bw_inst_read::.switch_cpus_10.inst       691517                       # Instruction read bandwidth from this memory (bytes/s)
system.mem_ctrls.bw_inst_read::.switch_cpus_11.inst       292048                       # Instruction read bandwidth from this memory (bytes/s)
system.mem_ctrls.bw_inst_read::total          2826490                       # Instruction read bandwidth from this memory (bytes/s)
system.mem_ctrls.bw_total::.cpu0.inst            3357                       # Total bandwidth to/from this memory (bytes/s)
system.mem_ctrls.bw_total::.cpu0.data            3357                       # Total bandwidth to/from this memory (bytes/s)
system.mem_ctrls.bw_total::.cpu1.inst            3357                       # Total bandwidth to/from this memory (bytes/s)
system.mem_ctrls.bw_total::.cpu1.data            3357                       # Total bandwidth to/from this memory (bytes/s)
system.mem_ctrls.bw_total::.switch_cpus0.inst      1171550                       # Total bandwidth to/from this memory (bytes/s)
system.mem_ctrls.bw_total::.switch_cpus0.data      1816070                       # Total bandwidth to/from this memory (bytes/s)
system.mem_ctrls.bw_total::.switch_cpus1.inst       664662                       # Total bandwidth to/from this memory (bytes/s)
system.mem_ctrls.bw_total::.switch_cpus1.data      4132315                       # Total bandwidth to/from this memory (bytes/s)
system.mem_ctrls.bw_total::.switch_cpus_10.inst       691517                       # Total bandwidth to/from this memory (bytes/s)
system.mem_ctrls.bw_total::.switch_cpus_10.data       553885                       # Total bandwidth to/from this memory (bytes/s)
system.mem_ctrls.bw_total::.switch_cpus_11.inst       292048                       # Total bandwidth to/from this memory (bytes/s)
system.mem_ctrls.bw_total::.switch_cpus_11.data     71538395                       # Total bandwidth to/from this memory (bytes/s)
system.mem_ctrls.bw_total::total             80873868                       # Total bandwidth to/from this memory (bytes/s)
system.cpu_clk_domain.clock                       417                       # Clock period in ticks

---------- End Simulation Statistics   ----------
