
---------- Begin Simulation Statistics ----------
final_tick                               1319132841036                       # Number of ticks from beginning of simulation (restored from checkpoints and never reset)
host_inst_rate                                 137790                       # Simulator instruction rate (inst/s)
host_mem_usage                                4675504                       # Number of bytes of host memory used
host_op_rate                                   297209                       # Simulator op (including micro ops) rate (op/s)
host_seconds                                   709.54                       # Real time elapsed on the host
host_tick_rate                               36335238                       # Simulator tick rate (ticks/s)
sim_freq                                 1000000000000                       # Frequency of simulated ticks
sim_insts                                    97766505                       # Number of instructions simulated
sim_ops                                     210880131                       # Number of ops (including micro ops) simulated
sim_seconds                                  0.025781                       # Number of seconds simulated
sim_ticks                                 25781133420                       # Number of ticks simulated
system.cpu0.committedInsts                          2                       # Number of instructions committed
system.cpu0.committedOps                            4                       # Number of ops (including micro ops) committed
system.cpu0.dcache.prefetcher.num_hwpf_issued         1030                       # number of hwpf issued
system.cpu0.dcache.prefetcher.pfBufferHit           35                       # number of redundant prefetches already in prefetch queue
system.cpu0.dcache.prefetcher.pfIdentified         1224                       # number of prefetch candidates identified
system.cpu0.dcache.prefetcher.pfInCache             0                       # number of redundant prefetches already in cache/mshr dropped
system.cpu0.dcache.prefetcher.pfRemovedFull            0                       # number of prefetches dropped due to prefetch queue size
system.cpu0.dcache.prefetcher.pfSpanPage           48                       # number of prefetches that crossed the page
system.cpu0.dtb.rdAccesses                          0                       # TLB accesses on read requests
system.cpu0.dtb.rdMisses                            0                       # TLB misses on read requests
system.cpu0.dtb.wrAccesses                          0                       # TLB accesses on write requests
system.cpu0.dtb.wrMisses                            0                       # TLB misses on write requests
system.cpu0.idle_fraction                           0                       # Percentage of idle cycles
system.cpu0.itb.rdAccesses                          0                       # TLB accesses on read requests
system.cpu0.itb.rdMisses                            0                       # TLB misses on read requests
system.cpu0.itb.wrAccesses                          2                       # TLB accesses on write requests
system.cpu0.itb.wrMisses                            0                       # TLB misses on write requests
system.cpu0.not_idle_fraction                       1                       # Percentage of non-idle cycles
system.cpu0.numCycles                               4                       # number of cpu cycles simulated
system.cpu0.numWorkItemsCompleted                   0                       # number of work items this cpu completed
system.cpu0.numWorkItemsStarted                     0                       # number of work items this cpu started
system.cpu0.num_busy_cycles                         4                       # Number of busy cycles
system.cpu0.num_cc_register_reads                   1                       # number of times the CC registers were read
system.cpu0.num_cc_register_writes                  4                       # number of times the CC registers were written
system.cpu0.num_conditional_control_insts            0                       # number of instructions that are conditional controls
system.cpu0.num_fp_alu_accesses                     0                       # Number of float alu accesses
system.cpu0.num_fp_insts                            0                       # number of float instructions
system.cpu0.num_fp_register_reads                   0                       # number of times the floating registers were read
system.cpu0.num_fp_register_writes                  0                       # number of times the floating registers were written
system.cpu0.num_func_calls                          0                       # number of times a function call or return occured
system.cpu0.num_idle_cycles                         0                       # Number of idle cycles
system.cpu0.num_int_alu_accesses                    4                       # Number of integer alu accesses
system.cpu0.num_int_insts                           4                       # number of integer instructions
system.cpu0.num_int_register_reads                  4                       # number of times the integer registers were read
system.cpu0.num_int_register_writes                 4                       # number of times the integer registers were written
system.cpu0.num_load_insts                          0                       # Number of load instructions
system.cpu0.num_mem_refs                            0                       # number of memory refs
system.cpu0.num_store_insts                         0                       # Number of store instructions
system.cpu0.num_vec_alu_accesses                    0                       # Number of vector alu accesses
system.cpu0.num_vec_insts                           0                       # number of vector instructions
system.cpu0.num_vec_register_reads                  0                       # number of times the vector registers were read
system.cpu0.num_vec_register_writes                 0                       # number of times the vector registers were written
system.cpu0.op_class::No_OpClass                    0      0.00%      0.00% # Class of executed instruction
system.cpu0.op_class::IntAlu                        4    100.00%    100.00% # Class of executed instruction
system.cpu0.op_class::IntMult                       0      0.00%    100.00% # Class of executed instruction
system.cpu0.op_class::IntDiv                        0      0.00%    100.00% # Class of executed instruction
system.cpu0.op_class::FloatAdd                      0      0.00%    100.00% # Class of executed instruction
system.cpu0.op_class::FloatCmp                      0      0.00%    100.00% # Class of executed instruction
system.cpu0.op_class::FloatCvt                      0      0.00%    100.00% # Class of executed instruction
system.cpu0.op_class::FloatMult                     0      0.00%    100.00% # Class of executed instruction
system.cpu0.op_class::FloatMultAcc                  0      0.00%    100.00% # Class of executed instruction
system.cpu0.op_class::FloatDiv                      0      0.00%    100.00% # Class of executed instruction
system.cpu0.op_class::FloatMisc                     0      0.00%    100.00% # Class of executed instruction
system.cpu0.op_class::FloatSqrt                     0      0.00%    100.00% # Class of executed instruction
system.cpu0.op_class::SimdAdd                       0      0.00%    100.00% # Class of executed instruction
system.cpu0.op_class::SimdAddAcc                    0      0.00%    100.00% # Class of executed instruction
system.cpu0.op_class::SimdAlu                       0      0.00%    100.00% # Class of executed instruction
system.cpu0.op_class::SimdCmp                       0      0.00%    100.00% # Class of executed instruction
system.cpu0.op_class::SimdCvt                       0      0.00%    100.00% # Class of executed instruction
system.cpu0.op_class::SimdMisc                      0      0.00%    100.00% # Class of executed instruction
system.cpu0.op_class::SimdMult                      0      0.00%    100.00% # Class of executed instruction
system.cpu0.op_class::SimdMultAcc                   0      0.00%    100.00% # Class of executed instruction
system.cpu0.op_class::SimdShift                     0      0.00%    100.00% # Class of executed instruction
system.cpu0.op_class::SimdShiftAcc                  0      0.00%    100.00% # Class of executed instruction
system.cpu0.op_class::SimdDiv                       0      0.00%    100.00% # Class of executed instruction
system.cpu0.op_class::SimdSqrt                      0      0.00%    100.00% # Class of executed instruction
system.cpu0.op_class::SimdFloatAdd                  0      0.00%    100.00% # Class of executed instruction
system.cpu0.op_class::SimdFloatAlu                  0      0.00%    100.00% # Class of executed instruction
system.cpu0.op_class::SimdFloatCmp                  0      0.00%    100.00% # Class of executed instruction
system.cpu0.op_class::SimdFloatCvt                  0      0.00%    100.00% # Class of executed instruction
system.cpu0.op_class::SimdFloatDiv                  0      0.00%    100.00% # Class of executed instruction
system.cpu0.op_class::SimdFloatMisc                 0      0.00%    100.00% # Class of executed instruction
system.cpu0.op_class::SimdFloatMult                 0      0.00%    100.00% # Class of executed instruction
system.cpu0.op_class::SimdFloatMultAcc              0      0.00%    100.00% # Class of executed instruction
system.cpu0.op_class::SimdFloatSqrt                 0      0.00%    100.00% # Class of executed instruction
system.cpu0.op_class::SimdReduceAdd                 0      0.00%    100.00% # Class of executed instruction
system.cpu0.op_class::SimdReduceAlu                 0      0.00%    100.00% # Class of executed instruction
system.cpu0.op_class::SimdReduceCmp                 0      0.00%    100.00% # Class of executed instruction
system.cpu0.op_class::SimdFloatReduceAdd            0      0.00%    100.00% # Class of executed instruction
system.cpu0.op_class::SimdFloatReduceCmp            0      0.00%    100.00% # Class of executed instruction
system.cpu0.op_class::SimdAes                       0      0.00%    100.00% # Class of executed instruction
system.cpu0.op_class::SimdAesMix                    0      0.00%    100.00% # Class of executed instruction
system.cpu0.op_class::SimdSha1Hash                  0      0.00%    100.00% # Class of executed instruction
system.cpu0.op_class::SimdSha1Hash2                 0      0.00%    100.00% # Class of executed instruction
system.cpu0.op_class::SimdSha256Hash                0      0.00%    100.00% # Class of executed instruction
system.cpu0.op_class::SimdSha256Hash2               0      0.00%    100.00% # Class of executed instruction
system.cpu0.op_class::SimdShaSigma2                 0      0.00%    100.00% # Class of executed instruction
system.cpu0.op_class::SimdShaSigma3                 0      0.00%    100.00% # Class of executed instruction
system.cpu0.op_class::SimdPredAlu                   0      0.00%    100.00% # Class of executed instruction
system.cpu0.op_class::MemRead                       0      0.00%    100.00% # Class of executed instruction
system.cpu0.op_class::MemWrite                      0      0.00%    100.00% # Class of executed instruction
system.cpu0.op_class::FloatMemRead                  0      0.00%    100.00% # Class of executed instruction
system.cpu0.op_class::FloatMemWrite                 0      0.00%    100.00% # Class of executed instruction
system.cpu0.op_class::IprAccess                     0      0.00%    100.00% # Class of executed instruction
system.cpu0.op_class::InstPrefetch                  0      0.00%    100.00% # Class of executed instruction
system.cpu0.op_class::total                         4                       # Class of executed instruction
system.cpu0.toL2Bus.snoop_filter.hit_multi_requests           46                       # Number of requests hitting in the snoop filter with multiple (>1) holders of the requested data.
system.cpu0.toL2Bus.snoop_filter.hit_multi_snoops            1                       # Number of snoops hitting in the snoop filter with multiple (>1) holders of the requested data.
system.cpu0.toL2Bus.snoop_filter.hit_single_requests        13032                       # Number of requests hitting in the snoop filter with a single holder of the requested data.
system.cpu0.toL2Bus.snoop_filter.hit_single_snoops          581                       # Number of snoops hitting in the snoop filter with a single holder of the requested data.
system.cpu0.toL2Bus.snoop_filter.tot_requests        27080                       # Total number of requests made to the snoop filter.
system.cpu0.toL2Bus.snoop_filter.tot_snoops          582                       # Total number of snoops made to the snoop filter.
system.cpu0.toL3Bus.snoop_filter.hit_multi_requests            0                       # Number of requests hitting in the snoop filter with multiple (>1) holders of the requested data.
system.cpu0.toL3Bus.snoop_filter.hit_multi_snoops            0                       # Number of snoops hitting in the snoop filter with multiple (>1) holders of the requested data.
system.cpu0.toL3Bus.snoop_filter.hit_single_requests         2649                       # Number of requests hitting in the snoop filter with a single holder of the requested data.
system.cpu0.toL3Bus.snoop_filter.hit_single_snoops            0                       # Number of snoops hitting in the snoop filter with a single holder of the requested data.
system.cpu0.toL3Bus.snoop_filter.tot_requests         9825                       # Total number of requests made to the snoop filter.
system.cpu0.toL3Bus.snoop_filter.tot_snoops            0                       # Total number of snoops made to the snoop filter.
system.cpu0.workload.numSyscalls                    1                       # Number of system calls
system.cpu1.Branches                                1                       # Number of branches fetched
system.cpu1.committedInsts                          1                       # Number of instructions committed
system.cpu1.committedOps                            5                       # Number of ops (including micro ops) committed
system.cpu1.dcache.prefetcher.num_hwpf_issued          159                       # number of hwpf issued
system.cpu1.dcache.prefetcher.pfBufferHit            0                       # number of redundant prefetches already in prefetch queue
system.cpu1.dcache.prefetcher.pfIdentified          159                       # number of prefetch candidates identified
system.cpu1.dcache.prefetcher.pfInCache             0                       # number of redundant prefetches already in cache/mshr dropped
system.cpu1.dcache.prefetcher.pfRemovedFull            0                       # number of prefetches dropped due to prefetch queue size
system.cpu1.dcache.prefetcher.pfSpanPage            1                       # number of prefetches that crossed the page
system.cpu1.dtb.rdAccesses                          0                       # TLB accesses on read requests
system.cpu1.dtb.rdMisses                            0                       # TLB misses on read requests
system.cpu1.dtb.wrAccesses                          1                       # TLB accesses on write requests
system.cpu1.dtb.wrMisses                            0                       # TLB misses on write requests
system.cpu1.idle_fraction                           0                       # Percentage of idle cycles
system.cpu1.itb.rdAccesses                          0                       # TLB accesses on read requests
system.cpu1.itb.rdMisses                            0                       # TLB misses on read requests
system.cpu1.itb.wrAccesses                          2                       # TLB accesses on write requests
system.cpu1.itb.wrMisses                            0                       # TLB misses on write requests
system.cpu1.not_idle_fraction                       1                       # Percentage of non-idle cycles
system.cpu1.numCycles                               6                       # number of cpu cycles simulated
system.cpu1.numWorkItemsCompleted                   0                       # number of work items this cpu completed
system.cpu1.numWorkItemsStarted                     0                       # number of work items this cpu started
system.cpu1.num_busy_cycles                         6                       # Number of busy cycles
system.cpu1.num_conditional_control_insts            0                       # number of instructions that are conditional controls
system.cpu1.num_fp_alu_accesses                     0                       # Number of float alu accesses
system.cpu1.num_fp_insts                            0                       # number of float instructions
system.cpu1.num_fp_register_reads                   0                       # number of times the floating registers were read
system.cpu1.num_fp_register_writes                  0                       # number of times the floating registers were written
system.cpu1.num_func_calls                          1                       # number of times a function call or return occured
system.cpu1.num_idle_cycles                         0                       # Number of idle cycles
system.cpu1.num_int_alu_accesses                    5                       # Number of integer alu accesses
system.cpu1.num_int_insts                           5                       # number of integer instructions
system.cpu1.num_int_register_reads                  9                       # number of times the integer registers were read
system.cpu1.num_int_register_writes                 3                       # number of times the integer registers were written
system.cpu1.num_load_insts                          0                       # Number of load instructions
system.cpu1.num_mem_refs                            1                       # number of memory refs
system.cpu1.num_store_insts                         1                       # Number of store instructions
system.cpu1.num_vec_alu_accesses                    0                       # Number of vector alu accesses
system.cpu1.num_vec_insts                           0                       # number of vector instructions
system.cpu1.num_vec_register_reads                  0                       # number of times the vector registers were read
system.cpu1.num_vec_register_writes                 0                       # number of times the vector registers were written
system.cpu1.op_class::No_OpClass                    0      0.00%      0.00% # Class of executed instruction
system.cpu1.op_class::IntAlu                        4     80.00%     80.00% # Class of executed instruction
system.cpu1.op_class::IntMult                       0      0.00%     80.00% # Class of executed instruction
system.cpu1.op_class::IntDiv                        0      0.00%     80.00% # Class of executed instruction
system.cpu1.op_class::FloatAdd                      0      0.00%     80.00% # Class of executed instruction
system.cpu1.op_class::FloatCmp                      0      0.00%     80.00% # Class of executed instruction
system.cpu1.op_class::FloatCvt                      0      0.00%     80.00% # Class of executed instruction
system.cpu1.op_class::FloatMult                     0      0.00%     80.00% # Class of executed instruction
system.cpu1.op_class::FloatMultAcc                  0      0.00%     80.00% # Class of executed instruction
system.cpu1.op_class::FloatDiv                      0      0.00%     80.00% # Class of executed instruction
system.cpu1.op_class::FloatMisc                     0      0.00%     80.00% # Class of executed instruction
system.cpu1.op_class::FloatSqrt                     0      0.00%     80.00% # Class of executed instruction
system.cpu1.op_class::SimdAdd                       0      0.00%     80.00% # Class of executed instruction
system.cpu1.op_class::SimdAddAcc                    0      0.00%     80.00% # Class of executed instruction
system.cpu1.op_class::SimdAlu                       0      0.00%     80.00% # Class of executed instruction
system.cpu1.op_class::SimdCmp                       0      0.00%     80.00% # Class of executed instruction
system.cpu1.op_class::SimdCvt                       0      0.00%     80.00% # Class of executed instruction
system.cpu1.op_class::SimdMisc                      0      0.00%     80.00% # Class of executed instruction
system.cpu1.op_class::SimdMult                      0      0.00%     80.00% # Class of executed instruction
system.cpu1.op_class::SimdMultAcc                   0      0.00%     80.00% # Class of executed instruction
system.cpu1.op_class::SimdShift                     0      0.00%     80.00% # Class of executed instruction
system.cpu1.op_class::SimdShiftAcc                  0      0.00%     80.00% # Class of executed instruction
system.cpu1.op_class::SimdDiv                       0      0.00%     80.00% # Class of executed instruction
system.cpu1.op_class::SimdSqrt                      0      0.00%     80.00% # Class of executed instruction
system.cpu1.op_class::SimdFloatAdd                  0      0.00%     80.00% # Class of executed instruction
system.cpu1.op_class::SimdFloatAlu                  0      0.00%     80.00% # Class of executed instruction
system.cpu1.op_class::SimdFloatCmp                  0      0.00%     80.00% # Class of executed instruction
system.cpu1.op_class::SimdFloatCvt                  0      0.00%     80.00% # Class of executed instruction
system.cpu1.op_class::SimdFloatDiv                  0      0.00%     80.00% # Class of executed instruction
system.cpu1.op_class::SimdFloatMisc                 0      0.00%     80.00% # Class of executed instruction
system.cpu1.op_class::SimdFloatMult                 0      0.00%     80.00% # Class of executed instruction
system.cpu1.op_class::SimdFloatMultAcc              0      0.00%     80.00% # Class of executed instruction
system.cpu1.op_class::SimdFloatSqrt                 0      0.00%     80.00% # Class of executed instruction
system.cpu1.op_class::SimdReduceAdd                 0      0.00%     80.00% # Class of executed instruction
system.cpu1.op_class::SimdReduceAlu                 0      0.00%     80.00% # Class of executed instruction
system.cpu1.op_class::SimdReduceCmp                 0      0.00%     80.00% # Class of executed instruction
system.cpu1.op_class::SimdFloatReduceAdd            0      0.00%     80.00% # Class of executed instruction
system.cpu1.op_class::SimdFloatReduceCmp            0      0.00%     80.00% # Class of executed instruction
system.cpu1.op_class::SimdAes                       0      0.00%     80.00% # Class of executed instruction
system.cpu1.op_class::SimdAesMix                    0      0.00%     80.00% # Class of executed instruction
system.cpu1.op_class::SimdSha1Hash                  0      0.00%     80.00% # Class of executed instruction
system.cpu1.op_class::SimdSha1Hash2                 0      0.00%     80.00% # Class of executed instruction
system.cpu1.op_class::SimdSha256Hash                0      0.00%     80.00% # Class of executed instruction
system.cpu1.op_class::SimdSha256Hash2               0      0.00%     80.00% # Class of executed instruction
system.cpu1.op_class::SimdShaSigma2                 0      0.00%     80.00% # Class of executed instruction
system.cpu1.op_class::SimdShaSigma3                 0      0.00%     80.00% # Class of executed instruction
system.cpu1.op_class::SimdPredAlu                   0      0.00%     80.00% # Class of executed instruction
system.cpu1.op_class::MemRead                       0      0.00%     80.00% # Class of executed instruction
system.cpu1.op_class::MemWrite                      1     20.00%    100.00% # Class of executed instruction
system.cpu1.op_class::FloatMemRead                  0      0.00%    100.00% # Class of executed instruction
system.cpu1.op_class::FloatMemWrite                 0      0.00%    100.00% # Class of executed instruction
system.cpu1.op_class::IprAccess                     0      0.00%    100.00% # Class of executed instruction
system.cpu1.op_class::InstPrefetch                  0      0.00%    100.00% # Class of executed instruction
system.cpu1.op_class::total                         5                       # Class of executed instruction
system.cpu1.toL2Bus.snoop_filter.hit_multi_requests           41                       # Number of requests hitting in the snoop filter with multiple (>1) holders of the requested data.
system.cpu1.toL2Bus.snoop_filter.hit_multi_snoops            0                       # Number of snoops hitting in the snoop filter with multiple (>1) holders of the requested data.
system.cpu1.toL2Bus.snoop_filter.hit_single_requests        51844                       # Number of requests hitting in the snoop filter with a single holder of the requested data.
system.cpu1.toL2Bus.snoop_filter.hit_single_snoops          414                       # Number of snoops hitting in the snoop filter with a single holder of the requested data.
system.cpu1.toL2Bus.snoop_filter.tot_requests       104486                       # Total number of requests made to the snoop filter.
system.cpu1.toL2Bus.snoop_filter.tot_snoops          414                       # Total number of snoops made to the snoop filter.
system.cpu1.toL3Bus.snoop_filter.hit_multi_requests            0                       # Number of requests hitting in the snoop filter with multiple (>1) holders of the requested data.
system.cpu1.toL3Bus.snoop_filter.hit_multi_snoops            0                       # Number of snoops hitting in the snoop filter with multiple (>1) holders of the requested data.
system.cpu1.toL3Bus.snoop_filter.hit_single_requests        23637                       # Number of requests hitting in the snoop filter with a single holder of the requested data.
system.cpu1.toL3Bus.snoop_filter.hit_single_snoops          110                       # Number of snoops hitting in the snoop filter with a single holder of the requested data.
system.cpu1.toL3Bus.snoop_filter.tot_requests        51690                       # Total number of requests made to the snoop filter.
system.cpu1.toL3Bus.snoop_filter.tot_snoops          110                       # Total number of snoops made to the snoop filter.
system.cpu1.workload.numSyscalls                15563                       # Number of system calls
system.membus.snoop_filter.hit_multi_requests            0                       # Number of requests hitting in the snoop filter with multiple (>1) holders of the requested data.
system.membus.snoop_filter.hit_multi_snoops            0                       # Number of snoops hitting in the snoop filter with multiple (>1) holders of the requested data.
system.membus.snoop_filter.hit_single_requests          192                       # Number of requests hitting in the snoop filter with a single holder of the requested data.
system.membus.snoop_filter.hit_single_snoops            0                       # Number of snoops hitting in the snoop filter with a single holder of the requested data.
system.membus.snoop_filter.tot_requests         35252                       # Total number of requests made to the snoop filter.
system.membus.snoop_filter.tot_snoops               0                       # Total number of snoops made to the snoop filter.
system.switch_cpus0.Branches                   255810                       # Number of branches fetched
system.switch_cpus0.committedInsts            1000002                       # Number of instructions committed
system.switch_cpus0.committedOps              2500851                       # Number of ops (including micro ops) committed
system.switch_cpus0.dtb.rdAccesses             269795                       # TLB accesses on read requests
system.switch_cpus0.dtb.rdMisses                  100                       # TLB misses on read requests
system.switch_cpus0.dtb.wrAccesses              39263                       # TLB accesses on write requests
system.switch_cpus0.dtb.wrMisses                    9                       # TLB misses on write requests
system.switch_cpus0.idle_fraction            0.000000                       # Percentage of idle cycles
system.switch_cpus0.itb.rdAccesses                  0                       # TLB accesses on read requests
system.switch_cpus0.itb.rdMisses                    0                       # TLB misses on read requests
system.switch_cpus0.itb.wrAccesses            1291116                       # TLB accesses on write requests
system.switch_cpus0.itb.wrMisses                   30                       # TLB misses on write requests
system.switch_cpus0.not_idle_fraction        1.000000                       # Percentage of non-idle cycles
system.switch_cpus0.numCycles                 5045679                       # number of cpu cycles simulated
system.switch_cpus0.numWorkItemsCompleted            0                       # number of work items this cpu completed
system.switch_cpus0.numWorkItemsStarted             0                       # number of work items this cpu started
system.switch_cpus0.num_busy_cycles      5045678.510328                       # Number of busy cycles
system.switch_cpus0.num_cc_register_reads      2113136                       # number of times the CC registers were read
system.switch_cpus0.num_cc_register_writes       710683                       # number of times the CC registers were written
system.switch_cpus0.num_conditional_control_insts       188505                       # number of instructions that are conditional controls
system.switch_cpus0.num_fp_alu_accesses        303641                       # Number of float alu accesses
system.switch_cpus0.num_fp_insts               303641                       # number of float instructions
system.switch_cpus0.num_fp_register_reads       510265                       # number of times the floating registers were read
system.switch_cpus0.num_fp_register_writes       256758                       # number of times the floating registers were written
system.switch_cpus0.num_func_calls              38683                       # number of times a function call or return occured
system.switch_cpus0.num_idle_cycles          0.489672                       # Number of idle cycles
system.switch_cpus0.num_int_alu_accesses      2259108                       # Number of integer alu accesses
system.switch_cpus0.num_int_insts             2259108                       # number of integer instructions
system.switch_cpus0.num_int_register_reads      4297908                       # number of times the integer registers were read
system.switch_cpus0.num_int_register_writes      1935891                       # number of times the integer registers were written
system.switch_cpus0.num_load_insts             267905                       # Number of load instructions
system.switch_cpus0.num_mem_refs               307166                       # number of memory refs
system.switch_cpus0.num_store_insts             39261                       # Number of store instructions
system.switch_cpus0.num_vec_alu_accesses            0                       # Number of vector alu accesses
system.switch_cpus0.num_vec_insts                   0                       # number of vector instructions
system.switch_cpus0.num_vec_register_reads            0                       # number of times the vector registers were read
system.switch_cpus0.num_vec_register_writes            0                       # number of times the vector registers were written
system.switch_cpus0.op_class::No_OpClass        48847      1.95%      1.95% # Class of executed instruction
system.switch_cpus0.op_class::IntAlu          1896344     75.83%     77.78% # Class of executed instruction
system.switch_cpus0.op_class::IntMult           10350      0.41%     78.19% # Class of executed instruction
system.switch_cpus0.op_class::IntDiv             1208      0.05%     78.24% # Class of executed instruction
system.switch_cpus0.op_class::FloatAdd           1032      0.04%     78.28% # Class of executed instruction
system.switch_cpus0.op_class::FloatCmp              0      0.00%     78.28% # Class of executed instruction
system.switch_cpus0.op_class::FloatCvt              0      0.00%     78.28% # Class of executed instruction
system.switch_cpus0.op_class::FloatMult             0      0.00%     78.28% # Class of executed instruction
system.switch_cpus0.op_class::FloatMultAcc            0      0.00%     78.28% # Class of executed instruction
system.switch_cpus0.op_class::FloatDiv              0      0.00%     78.28% # Class of executed instruction
system.switch_cpus0.op_class::FloatMisc             0      0.00%     78.28% # Class of executed instruction
system.switch_cpus0.op_class::FloatSqrt             0      0.00%     78.28% # Class of executed instruction
system.switch_cpus0.op_class::SimdAdd           18316      0.73%     79.02% # Class of executed instruction
system.switch_cpus0.op_class::SimdAddAcc            0      0.00%     79.02% # Class of executed instruction
system.switch_cpus0.op_class::SimdAlu           96603      3.86%     82.88% # Class of executed instruction
system.switch_cpus0.op_class::SimdCmp               6      0.00%     82.88% # Class of executed instruction
system.switch_cpus0.op_class::SimdCvt           64674      2.59%     85.47% # Class of executed instruction
system.switch_cpus0.op_class::SimdMisc          46423      1.86%     87.32% # Class of executed instruction
system.switch_cpus0.op_class::SimdMult              0      0.00%     87.32% # Class of executed instruction
system.switch_cpus0.op_class::SimdMultAcc            0      0.00%     87.32% # Class of executed instruction
system.switch_cpus0.op_class::SimdShift          9872      0.39%     87.72% # Class of executed instruction
system.switch_cpus0.op_class::SimdShiftAcc            0      0.00%     87.72% # Class of executed instruction
system.switch_cpus0.op_class::SimdDiv               0      0.00%     87.72% # Class of executed instruction
system.switch_cpus0.op_class::SimdSqrt              0      0.00%     87.72% # Class of executed instruction
system.switch_cpus0.op_class::SimdFloatAdd            0      0.00%     87.72% # Class of executed instruction
system.switch_cpus0.op_class::SimdFloatAlu            0      0.00%     87.72% # Class of executed instruction
system.switch_cpus0.op_class::SimdFloatCmp            0      0.00%     87.72% # Class of executed instruction
system.switch_cpus0.op_class::SimdFloatCvt           18      0.00%     87.72% # Class of executed instruction
system.switch_cpus0.op_class::SimdFloatDiv            0      0.00%     87.72% # Class of executed instruction
system.switch_cpus0.op_class::SimdFloatMisc            0      0.00%     87.72% # Class of executed instruction
system.switch_cpus0.op_class::SimdFloatMult            0      0.00%     87.72% # Class of executed instruction
system.switch_cpus0.op_class::SimdFloatMultAcc            0      0.00%     87.72% # Class of executed instruction
system.switch_cpus0.op_class::SimdFloatSqrt            0      0.00%     87.72% # Class of executed instruction
system.switch_cpus0.op_class::SimdReduceAdd            0      0.00%     87.72% # Class of executed instruction
system.switch_cpus0.op_class::SimdReduceAlu            0      0.00%     87.72% # Class of executed instruction
system.switch_cpus0.op_class::SimdReduceCmp            0      0.00%     87.72% # Class of executed instruction
system.switch_cpus0.op_class::SimdFloatReduceAdd            0      0.00%     87.72% # Class of executed instruction
system.switch_cpus0.op_class::SimdFloatReduceCmp            0      0.00%     87.72% # Class of executed instruction
system.switch_cpus0.op_class::SimdAes               0      0.00%     87.72% # Class of executed instruction
system.switch_cpus0.op_class::SimdAesMix            0      0.00%     87.72% # Class of executed instruction
system.switch_cpus0.op_class::SimdSha1Hash            0      0.00%     87.72% # Class of executed instruction
system.switch_cpus0.op_class::SimdSha1Hash2            0      0.00%     87.72% # Class of executed instruction
system.switch_cpus0.op_class::SimdSha256Hash            0      0.00%     87.72% # Class of executed instruction
system.switch_cpus0.op_class::SimdSha256Hash2            0      0.00%     87.72% # Class of executed instruction
system.switch_cpus0.op_class::SimdShaSigma2            0      0.00%     87.72% # Class of executed instruction
system.switch_cpus0.op_class::SimdShaSigma3            0      0.00%     87.72% # Class of executed instruction
system.switch_cpus0.op_class::SimdPredAlu            0      0.00%     87.72% # Class of executed instruction
system.switch_cpus0.op_class::MemRead          202379      8.09%     95.81% # Class of executed instruction
system.switch_cpus0.op_class::MemWrite          38745      1.55%     97.36% # Class of executed instruction
system.switch_cpus0.op_class::FloatMemRead        65526      2.62%     99.98% # Class of executed instruction
system.switch_cpus0.op_class::FloatMemWrite          516      0.02%    100.00% # Class of executed instruction
system.switch_cpus0.op_class::IprAccess             0      0.00%    100.00% # Class of executed instruction
system.switch_cpus0.op_class::InstPrefetch            0      0.00%    100.00% # Class of executed instruction
system.switch_cpus0.op_class::total           2500859                       # Class of executed instruction
system.switch_cpus1.Branches                   193277                       # Number of branches fetched
system.switch_cpus1.committedInsts             860045                       # Number of instructions committed
system.switch_cpus1.committedOps              1739977                       # Number of ops (including micro ops) committed
system.switch_cpus1.dtb.rdAccesses             251218                       # TLB accesses on read requests
system.switch_cpus1.dtb.rdMisses                   40                       # TLB misses on read requests
system.switch_cpus1.dtb.wrAccesses             183520                       # TLB accesses on write requests
system.switch_cpus1.dtb.wrMisses                    3                       # TLB misses on write requests
system.switch_cpus1.idle_fraction            0.000000                       # Percentage of idle cycles
system.switch_cpus1.itb.rdAccesses                  0                       # TLB accesses on read requests
system.switch_cpus1.itb.rdMisses                    0                       # TLB misses on read requests
system.switch_cpus1.itb.wrAccesses            1090506                       # TLB accesses on write requests
system.switch_cpus1.itb.wrMisses                   27                       # TLB misses on write requests
system.switch_cpus1.not_idle_fraction        1.000000                       # Percentage of non-idle cycles
system.switch_cpus1.numCycles                 5045679                       # number of cpu cycles simulated
system.switch_cpus1.numWorkItemsCompleted            0                       # number of work items this cpu completed
system.switch_cpus1.numWorkItemsStarted             0                       # number of work items this cpu started
system.switch_cpus1.num_busy_cycles      5045678.510328                       # Number of busy cycles
system.switch_cpus1.num_cc_register_reads       719032                       # number of times the CC registers were read
system.switch_cpus1.num_cc_register_writes       385996                       # number of times the CC registers were written
system.switch_cpus1.num_conditional_control_insts        88041                       # number of instructions that are conditional controls
system.switch_cpus1.num_fp_alu_accesses         14229                       # Number of float alu accesses
system.switch_cpus1.num_fp_insts                14229                       # number of float instructions
system.switch_cpus1.num_fp_register_reads        23885                       # number of times the floating registers were read
system.switch_cpus1.num_fp_register_writes        12515                       # number of times the floating registers were written
system.switch_cpus1.num_func_calls              91168                       # number of times a function call or return occured
system.switch_cpus1.num_idle_cycles          0.489672                       # Number of idle cycles
system.switch_cpus1.num_int_alu_accesses      1722083                       # Number of integer alu accesses
system.switch_cpus1.num_int_insts             1722083                       # number of integer instructions
system.switch_cpus1.num_int_register_reads      3651014                       # number of times the integer registers were read
system.switch_cpus1.num_int_register_writes      1350655                       # number of times the integer registers were written
system.switch_cpus1.num_load_insts             251216                       # Number of load instructions
system.switch_cpus1.num_mem_refs               434734                       # number of memory refs
system.switch_cpus1.num_store_insts            183518                       # Number of store instructions
system.switch_cpus1.num_vec_alu_accesses            0                       # Number of vector alu accesses
system.switch_cpus1.num_vec_insts                   0                       # number of vector instructions
system.switch_cpus1.num_vec_register_reads            0                       # number of times the vector registers were read
system.switch_cpus1.num_vec_register_writes            0                       # number of times the vector registers were written
system.switch_cpus1.op_class::No_OpClass         5750      0.33%      0.33% # Class of executed instruction
system.switch_cpus1.op_class::IntAlu          1286460     73.94%     74.27% # Class of executed instruction
system.switch_cpus1.op_class::IntMult             803      0.05%     74.31% # Class of executed instruction
system.switch_cpus1.op_class::IntDiv             1988      0.11%     74.43% # Class of executed instruction
system.switch_cpus1.op_class::FloatAdd            567      0.03%     74.46% # Class of executed instruction
system.switch_cpus1.op_class::FloatCmp              0      0.00%     74.46% # Class of executed instruction
system.switch_cpus1.op_class::FloatCvt              0      0.00%     74.46% # Class of executed instruction
system.switch_cpus1.op_class::FloatMult             0      0.00%     74.46% # Class of executed instruction
system.switch_cpus1.op_class::FloatMultAcc            0      0.00%     74.46% # Class of executed instruction
system.switch_cpus1.op_class::FloatDiv              0      0.00%     74.46% # Class of executed instruction
system.switch_cpus1.op_class::FloatMisc             0      0.00%     74.46% # Class of executed instruction
system.switch_cpus1.op_class::FloatSqrt             0      0.00%     74.46% # Class of executed instruction
system.switch_cpus1.op_class::SimdAdd               0      0.00%     74.46% # Class of executed instruction
system.switch_cpus1.op_class::SimdAddAcc            0      0.00%     74.46% # Class of executed instruction
system.switch_cpus1.op_class::SimdAlu            2276      0.13%     74.59% # Class of executed instruction
system.switch_cpus1.op_class::SimdCmp               0      0.00%     74.59% # Class of executed instruction
system.switch_cpus1.op_class::SimdCvt            2282      0.13%     74.72% # Class of executed instruction
system.switch_cpus1.op_class::SimdMisc           5117      0.29%     75.01% # Class of executed instruction
system.switch_cpus1.op_class::SimdMult              0      0.00%     75.01% # Class of executed instruction
system.switch_cpus1.op_class::SimdMultAcc            0      0.00%     75.01% # Class of executed instruction
system.switch_cpus1.op_class::SimdShift             0      0.00%     75.01% # Class of executed instruction
system.switch_cpus1.op_class::SimdShiftAcc            0      0.00%     75.01% # Class of executed instruction
system.switch_cpus1.op_class::SimdDiv               0      0.00%     75.01% # Class of executed instruction
system.switch_cpus1.op_class::SimdSqrt              0      0.00%     75.01% # Class of executed instruction
system.switch_cpus1.op_class::SimdFloatAdd            0      0.00%     75.01% # Class of executed instruction
system.switch_cpus1.op_class::SimdFloatAlu            0      0.00%     75.01% # Class of executed instruction
system.switch_cpus1.op_class::SimdFloatCmp            0      0.00%     75.01% # Class of executed instruction
system.switch_cpus1.op_class::SimdFloatCvt            0      0.00%     75.01% # Class of executed instruction
system.switch_cpus1.op_class::SimdFloatDiv            0      0.00%     75.01% # Class of executed instruction
system.switch_cpus1.op_class::SimdFloatMisc            0      0.00%     75.01% # Class of executed instruction
system.switch_cpus1.op_class::SimdFloatMult            0      0.00%     75.01% # Class of executed instruction
system.switch_cpus1.op_class::SimdFloatMultAcc            0      0.00%     75.01% # Class of executed instruction
system.switch_cpus1.op_class::SimdFloatSqrt            0      0.00%     75.01% # Class of executed instruction
system.switch_cpus1.op_class::SimdReduceAdd            0      0.00%     75.01% # Class of executed instruction
system.switch_cpus1.op_class::SimdReduceAlu            0      0.00%     75.01% # Class of executed instruction
system.switch_cpus1.op_class::SimdReduceCmp            0      0.00%     75.01% # Class of executed instruction
system.switch_cpus1.op_class::SimdFloatReduceAdd            0      0.00%     75.01% # Class of executed instruction
system.switch_cpus1.op_class::SimdFloatReduceCmp            0      0.00%     75.01% # Class of executed instruction
system.switch_cpus1.op_class::SimdAes               0      0.00%     75.01% # Class of executed instruction
system.switch_cpus1.op_class::SimdAesMix            0      0.00%     75.01% # Class of executed instruction
system.switch_cpus1.op_class::SimdSha1Hash            0      0.00%     75.01% # Class of executed instruction
system.switch_cpus1.op_class::SimdSha1Hash2            0      0.00%     75.01% # Class of executed instruction
system.switch_cpus1.op_class::SimdSha256Hash            0      0.00%     75.01% # Class of executed instruction
system.switch_cpus1.op_class::SimdSha256Hash2            0      0.00%     75.01% # Class of executed instruction
system.switch_cpus1.op_class::SimdShaSigma2            0      0.00%     75.01% # Class of executed instruction
system.switch_cpus1.op_class::SimdShaSigma3            0      0.00%     75.01% # Class of executed instruction
system.switch_cpus1.op_class::SimdPredAlu            0      0.00%     75.01% # Class of executed instruction
system.switch_cpus1.op_class::MemRead          249496     14.34%     89.35% # Class of executed instruction
system.switch_cpus1.op_class::MemWrite         182952     10.51%     99.87% # Class of executed instruction
system.switch_cpus1.op_class::FloatMemRead         1720      0.10%     99.97% # Class of executed instruction
system.switch_cpus1.op_class::FloatMemWrite          566      0.03%    100.00% # Class of executed instruction
system.switch_cpus1.op_class::IprAccess             0      0.00%    100.00% # Class of executed instruction
system.switch_cpus1.op_class::InstPrefetch            0      0.00%    100.00% # Class of executed instruction
system.switch_cpus1.op_class::total           1739977                       # Class of executed instruction
system.switch_cpus_10.branchPred.BTBCorrect            0                       # Number of correct BTB predictions (this stat may not work properly.
system.switch_cpus_10.branchPred.BTBHitPct     0.000000                       # BTB Hit Percentage
system.switch_cpus_10.branchPred.BTBHits            0                       # Number of BTB hits
system.switch_cpus_10.branchPred.BTBLookups     21178593                       # Number of BTB lookups
system.switch_cpus_10.branchPred.RASInCorrect            7                       # Number of incorrect RAS predictions.
system.switch_cpus_10.branchPred.condIncorrect      1436524                       # Number of conditional branches incorrect
system.switch_cpus_10.branchPred.condPredicted     22939816                       # Number of conditional branches predicted
system.switch_cpus_10.branchPred.indirectHits      8060865                       # Number of indirect target hits.
system.switch_cpus_10.branchPred.indirectLookups     21178593                       # Number of indirect predictor lookups.
system.switch_cpus_10.branchPred.indirectMisses     13117728                       # Number of indirect misses.
system.switch_cpus_10.branchPred.lookups     24645030                       # Number of BP lookups
system.switch_cpus_10.branchPred.usedRAS       752781                       # Number of times the RAS was used to get a target.
system.switch_cpus_10.branchPredindirectMispredicted      1007000                       # Number of mispredicted indirect branches.
system.switch_cpus_10.cc_regfile_reads       99972791                       # number of cc regfile reads
system.switch_cpus_10.cc_regfile_writes      41547945                       # number of cc regfile writes
system.switch_cpus_10.commit.amos                   0                       # Number of atomic instructions committed
system.switch_cpus_10.commit.branchMispredicts      1436524                       # The number of times a branch was mispredicted
system.switch_cpus_10.commit.branches        14584540                       # Number of branches committed
system.switch_cpus_10.commit.bw_lim_events      6524287                       # number cycles where commit BW limit reached
system.switch_cpus_10.commit.commitNonSpecStalls          189                       # The number of times commit has been forced to stall to communicate backwards
system.switch_cpus_10.commit.commitSquashedInsts     49885495                       # The number of squashed insts skipped by commit
system.switch_cpus_10.commit.committedInsts     50000002                       # Number of instructions committed
system.switch_cpus_10.commit.committedOps    113620108                       # Number of ops (including micro ops) committed
system.switch_cpus_10.commit.committed_per_cycle::samples     49420873                       # Number of insts commited each cycle
system.switch_cpus_10.commit.committed_per_cycle::mean     2.299031                       # Number of insts commited each cycle
system.switch_cpus_10.commit.committed_per_cycle::stdev     2.660802                       # Number of insts commited each cycle
system.switch_cpus_10.commit.committed_per_cycle::underflows            0      0.00%      0.00% # Number of insts commited each cycle
system.switch_cpus_10.commit.committed_per_cycle::0     16925405     34.25%     34.25% # Number of insts commited each cycle
system.switch_cpus_10.commit.committed_per_cycle::1      8368739     16.93%     51.18% # Number of insts commited each cycle
system.switch_cpus_10.commit.committed_per_cycle::2      7438164     15.05%     66.23% # Number of insts commited each cycle
system.switch_cpus_10.commit.committed_per_cycle::3      5750964     11.64%     77.87% # Number of insts commited each cycle
system.switch_cpus_10.commit.committed_per_cycle::4      2581565      5.22%     83.09% # Number of insts commited each cycle
system.switch_cpus_10.commit.committed_per_cycle::5       741281      1.50%     84.59% # Number of insts commited each cycle
system.switch_cpus_10.commit.committed_per_cycle::6       738088      1.49%     86.09% # Number of insts commited each cycle
system.switch_cpus_10.commit.committed_per_cycle::7       352380      0.71%     86.80% # Number of insts commited each cycle
system.switch_cpus_10.commit.committed_per_cycle::8      6524287     13.20%    100.00% # Number of insts commited each cycle
system.switch_cpus_10.commit.committed_per_cycle::overflows            0      0.00%    100.00% # Number of insts commited each cycle
system.switch_cpus_10.commit.committed_per_cycle::min_value            0                       # Number of insts commited each cycle
system.switch_cpus_10.commit.committed_per_cycle::max_value            8                       # Number of insts commited each cycle
system.switch_cpus_10.commit.committed_per_cycle::total     49420873                       # Number of insts commited each cycle
system.switch_cpus_10.commit.fp_insts         7862672                       # Number of committed floating point instructions.
system.switch_cpus_10.commit.function_calls       592693                       # Number of function calls committed.
system.switch_cpus_10.commit.int_insts      107426394                       # Number of committed integer instructions.
system.switch_cpus_10.commit.loads           10493822                       # Number of loads committed
system.switch_cpus_10.commit.membars                0                       # Number of memory barriers committed
system.switch_cpus_10.commit.op_class_0::No_OpClass      1251941      1.10%      1.10% # Class of committed instruction
system.switch_cpus_10.commit.op_class_0::IntAlu     92928521     81.79%     82.89% # Class of committed instruction
system.switch_cpus_10.commit.op_class_0::IntMult       476584      0.42%     83.31% # Class of committed instruction
system.switch_cpus_10.commit.op_class_0::IntDiv        16050      0.01%     83.32% # Class of committed instruction
system.switch_cpus_10.commit.op_class_0::FloatAdd        27353      0.02%     83.35% # Class of committed instruction
system.switch_cpus_10.commit.op_class_0::FloatCmp            0      0.00%     83.35% # Class of committed instruction
system.switch_cpus_10.commit.op_class_0::FloatCvt            0      0.00%     83.35% # Class of committed instruction
system.switch_cpus_10.commit.op_class_0::FloatMult            0      0.00%     83.35% # Class of committed instruction
system.switch_cpus_10.commit.op_class_0::FloatMultAcc            0      0.00%     83.35% # Class of committed instruction
system.switch_cpus_10.commit.op_class_0::FloatDiv            0      0.00%     83.35% # Class of committed instruction
system.switch_cpus_10.commit.op_class_0::FloatMisc            0      0.00%     83.35% # Class of committed instruction
system.switch_cpus_10.commit.op_class_0::FloatSqrt            0      0.00%     83.35% # Class of committed instruction
system.switch_cpus_10.commit.op_class_0::SimdAdd       476694      0.42%     83.77% # Class of committed instruction
system.switch_cpus_10.commit.op_class_0::SimdAddAcc            0      0.00%     83.77% # Class of committed instruction
system.switch_cpus_10.commit.op_class_0::SimdAlu      2413005      2.12%     85.89% # Class of committed instruction
system.switch_cpus_10.commit.op_class_0::SimdCmp         5664      0.00%     85.90% # Class of committed instruction
system.switch_cpus_10.commit.op_class_0::SimdCvt      1693068      1.49%     87.39% # Class of committed instruction
system.switch_cpus_10.commit.op_class_0::SimdMisc      1217052      1.07%     88.46% # Class of committed instruction
system.switch_cpus_10.commit.op_class_0::SimdMult            0      0.00%     88.46% # Class of committed instruction
system.switch_cpus_10.commit.op_class_0::SimdMultAcc            0      0.00%     88.46% # Class of committed instruction
system.switch_cpus_10.commit.op_class_0::SimdShift       264977      0.23%     88.69% # Class of committed instruction
system.switch_cpus_10.commit.op_class_0::SimdShiftAcc            0      0.00%     88.69% # Class of committed instruction
system.switch_cpus_10.commit.op_class_0::SimdDiv            0      0.00%     88.69% # Class of committed instruction
system.switch_cpus_10.commit.op_class_0::SimdSqrt            0      0.00%     88.69% # Class of committed instruction
system.switch_cpus_10.commit.op_class_0::SimdFloatAdd            0      0.00%     88.69% # Class of committed instruction
system.switch_cpus_10.commit.op_class_0::SimdFloatAlu            0      0.00%     88.69% # Class of committed instruction
system.switch_cpus_10.commit.op_class_0::SimdFloatCmp            0      0.00%     88.69% # Class of committed instruction
system.switch_cpus_10.commit.op_class_0::SimdFloatCvt           88      0.00%     88.69% # Class of committed instruction
system.switch_cpus_10.commit.op_class_0::SimdFloatDiv            0      0.00%     88.69% # Class of committed instruction
system.switch_cpus_10.commit.op_class_0::SimdFloatMisc            0      0.00%     88.69% # Class of committed instruction
system.switch_cpus_10.commit.op_class_0::SimdFloatMult            0      0.00%     88.69% # Class of committed instruction
system.switch_cpus_10.commit.op_class_0::SimdFloatMultAcc            0      0.00%     88.69% # Class of committed instruction
system.switch_cpus_10.commit.op_class_0::SimdFloatSqrt            0      0.00%     88.69% # Class of committed instruction
system.switch_cpus_10.commit.op_class_0::SimdReduceAdd            0      0.00%     88.69% # Class of committed instruction
system.switch_cpus_10.commit.op_class_0::SimdReduceAlu            0      0.00%     88.69% # Class of committed instruction
system.switch_cpus_10.commit.op_class_0::SimdReduceCmp            0      0.00%     88.69% # Class of committed instruction
system.switch_cpus_10.commit.op_class_0::SimdFloatReduceAdd            0      0.00%     88.69% # Class of committed instruction
system.switch_cpus_10.commit.op_class_0::SimdFloatReduceCmp            0      0.00%     88.69% # Class of committed instruction
system.switch_cpus_10.commit.op_class_0::SimdAes            0      0.00%     88.69% # Class of committed instruction
system.switch_cpus_10.commit.op_class_0::SimdAesMix            0      0.00%     88.69% # Class of committed instruction
system.switch_cpus_10.commit.op_class_0::SimdSha1Hash            0      0.00%     88.69% # Class of committed instruction
system.switch_cpus_10.commit.op_class_0::SimdSha1Hash2            0      0.00%     88.69% # Class of committed instruction
system.switch_cpus_10.commit.op_class_0::SimdSha256Hash            0      0.00%     88.69% # Class of committed instruction
system.switch_cpus_10.commit.op_class_0::SimdSha256Hash2            0      0.00%     88.69% # Class of committed instruction
system.switch_cpus_10.commit.op_class_0::SimdShaSigma2            0      0.00%     88.69% # Class of committed instruction
system.switch_cpus_10.commit.op_class_0::SimdShaSigma3            0      0.00%     88.69% # Class of committed instruction
system.switch_cpus_10.commit.op_class_0::SimdPredAlu            0      0.00%     88.69% # Class of committed instruction
system.switch_cpus_10.commit.op_class_0::MemRead      8769465      7.72%     96.41% # Class of committed instruction
system.switch_cpus_10.commit.op_class_0::MemWrite      2326304      2.05%     98.46% # Class of committed instruction
system.switch_cpus_10.commit.op_class_0::FloatMemRead      1724357      1.52%     99.97% # Class of committed instruction
system.switch_cpus_10.commit.op_class_0::FloatMemWrite        28985      0.03%    100.00% # Class of committed instruction
system.switch_cpus_10.commit.op_class_0::IprAccess            0      0.00%    100.00% # Class of committed instruction
system.switch_cpus_10.commit.op_class_0::InstPrefetch            0      0.00%    100.00% # Class of committed instruction
system.switch_cpus_10.commit.op_class_0::total    113620108                       # Class of committed instruction
system.switch_cpus_10.commit.refs            12849111                       # Number of memory references committed
system.switch_cpus_10.commit.swp_count              0                       # Number of s/w prefetches committed
system.switch_cpus_10.commit.vec_insts              0                       # Number of committed Vector instructions.
system.switch_cpus_10.committedInsts         50000002                       # Number of Instructions Simulated
system.switch_cpus_10.committedOps          113620108                       # Number of Ops (including micro ops) Simulated
system.switch_cpus_10.cpi                    1.135591                       # CPI: Cycles Per Instruction
system.switch_cpus_10.cpi_total              1.135591                       # CPI: Total CPI of All Threads
system.switch_cpus_10.decode.BlockedCycles      9421299                       # Number of cycles decode is blocked
system.switch_cpus_10.decode.DecodedInsts    182021805                       # Number of instructions handled by decode
system.switch_cpus_10.decode.IdleCycles      18595744                       # Number of cycles decode is idle
system.switch_cpus_10.decode.RunCycles       25476256                       # Number of cycles decode is running
system.switch_cpus_10.decode.SquashCycles      1441804                       # Number of cycles decode is squashing
system.switch_cpus_10.decode.UnblockCycles      1812851                       # Number of cycles decode is unblocking
system.switch_cpus_10.dtb.rdAccesses         13965649                       # TLB accesses on read requests
system.switch_cpus_10.dtb.rdMisses               1975                       # TLB misses on read requests
system.switch_cpus_10.dtb.wrAccesses          3135220                       # TLB accesses on write requests
system.switch_cpus_10.dtb.wrMisses                201                       # TLB misses on write requests
system.switch_cpus_10.fetch.Branches         24645030                       # Number of branches that fetch encountered
system.switch_cpus_10.fetch.CacheLines       10163499                       # Number of cache lines fetched
system.switch_cpus_10.fetch.Cycles           34647291                       # Number of cycles fetch has run and was not squashing or blocked
system.switch_cpus_10.fetch.IcacheSquashes       515882                       # Number of outstanding Icache misses that were squashed
system.switch_cpus_10.fetch.IcacheWaitRetryStallCycles          253                       # Number of stall cycles due to full MSHR
system.switch_cpus_10.fetch.Insts            84418026                       # Number of instructions fetch has processed
system.switch_cpus_10.fetch.MiscStallCycles          512                       # Number of cycles fetch has spent waiting on interrupts, or bad addresses, or out of MSHRs
system.switch_cpus_10.fetch.SquashCycles      2883608                       # Number of cycles fetch has spent squashing
system.switch_cpus_10.fetch.branchRate       0.434047                       # Number of branch fetches per cycle
system.switch_cpus_10.fetch.icacheStallCycles     20658105                       # Number of cycles fetch is stalled on an Icache miss
system.switch_cpus_10.fetch.predictedBranches      8813646                       # Number of branches that fetch has predicted taken
system.switch_cpus_10.fetch.rate             1.486767                       # Number of inst fetches per cycle
system.switch_cpus_10.fetch.rateDist::samples     56747965                       # Number of instructions fetched each cycle (Total)
system.switch_cpus_10.fetch.rateDist::mean     3.378581                       # Number of instructions fetched each cycle (Total)
system.switch_cpus_10.fetch.rateDist::stdev     3.623820                       # Number of instructions fetched each cycle (Total)
system.switch_cpus_10.fetch.rateDist::underflows            0      0.00%      0.00% # Number of instructions fetched each cycle (Total)
system.switch_cpus_10.fetch.rateDist::0      26190296     46.15%     46.15% # Number of instructions fetched each cycle (Total)
system.switch_cpus_10.fetch.rateDist::1       2941761      5.18%     51.34% # Number of instructions fetched each cycle (Total)
system.switch_cpus_10.fetch.rateDist::2        818882      1.44%     52.78% # Number of instructions fetched each cycle (Total)
system.switch_cpus_10.fetch.rateDist::3       2272183      4.00%     56.78% # Number of instructions fetched each cycle (Total)
system.switch_cpus_10.fetch.rateDist::4       1950167      3.44%     60.22% # Number of instructions fetched each cycle (Total)
system.switch_cpus_10.fetch.rateDist::5       1485946      2.62%     62.84% # Number of instructions fetched each cycle (Total)
system.switch_cpus_10.fetch.rateDist::6       1209587      2.13%     64.97% # Number of instructions fetched each cycle (Total)
system.switch_cpus_10.fetch.rateDist::7       1189517      2.10%     67.07% # Number of instructions fetched each cycle (Total)
system.switch_cpus_10.fetch.rateDist::8      18689626     32.93%    100.00% # Number of instructions fetched each cycle (Total)
system.switch_cpus_10.fetch.rateDist::overflows            0      0.00%    100.00% # Number of instructions fetched each cycle (Total)
system.switch_cpus_10.fetch.rateDist::min_value            0                       # Number of instructions fetched each cycle (Total)
system.switch_cpus_10.fetch.rateDist::max_value            8                       # Number of instructions fetched each cycle (Total)
system.switch_cpus_10.fetch.rateDist::total     56747965                       # Number of instructions fetched each cycle (Total)
system.switch_cpus_10.fp_regfile_reads       18682255                       # number of floating regfile reads
system.switch_cpus_10.fp_regfile_writes      10247671                       # number of floating regfile writes
system.switch_cpus_10.idleCycles                31610                       # Total number of cycles that the CPU has spent unscheduled due to idling
system.switch_cpus_10.iew.branchMispredicts      1769139                       # Number of branch mispredicts detected at execute
system.switch_cpus_10.iew.exec_branches      16429127                       # Number of branches executed
system.switch_cpus_10.iew.exec_nop                  0                       # number of nop insts executed
system.switch_cpus_10.iew.exec_rate          2.504002                       # Inst execution rate
system.switch_cpus_10.iew.exec_refs          17025337                       # number of memory reference insts executed
system.switch_cpus_10.iew.exec_stores         3135123                       # Number of stores executed
system.switch_cpus_10.iew.exec_swp                  0                       # number of swp insts executed
system.switch_cpus_10.iew.iewBlockCycles      5969175                       # Number of cycles IEW is blocking
system.switch_cpus_10.iew.iewDispLoadInsts     15811669                       # Number of dispatched load instructions
system.switch_cpus_10.iew.iewDispNonSpecInsts           11                       # Number of dispatched non-speculative instructions
system.switch_cpus_10.iew.iewDispSquashedInsts       423730                       # Number of squashed instructions skipped by dispatch
system.switch_cpus_10.iew.iewDispStoreInsts      3618807                       # Number of dispatched store instructions
system.switch_cpus_10.iew.iewDispatchedInsts    163673687                       # Number of instructions dispatched to IQ
system.switch_cpus_10.iew.iewExecLoadInsts     13890214                       # Number of load instructions executed
system.switch_cpus_10.iew.iewExecSquashedInsts      2832675                       # Number of squashed instructions skipped in execute
system.switch_cpus_10.iew.iewExecutedInsts    142176186                       # Number of executed instructions
system.switch_cpus_10.iew.iewIQFullEvents         1854                       # Number of times the IQ has become full, causing a stall
system.switch_cpus_10.iew.iewIdleCycles             0                       # Number of cycles IEW is idle
system.switch_cpus_10.iew.iewLSQFullEvents       108705                       # Number of times the LSQ has become full, causing a stall
system.switch_cpus_10.iew.iewSquashCycles      1441804                       # Number of cycles IEW is squashing
system.switch_cpus_10.iew.iewUnblockCycles       110699                       # Number of cycles IEW is unblocking
system.switch_cpus_10.iew.lsq.thread0.blockedLoads            0                       # Number of blocked loads due to partial load-store forwarding
system.switch_cpus_10.iew.lsq.thread0.cacheBlocked          816                       # Number of times an access to memory failed due to the cache being blocked
system.switch_cpus_10.iew.lsq.thread0.forwLoads       234607                       # Number of loads that had data forwarded from stores
system.switch_cpus_10.iew.lsq.thread0.ignoredResponses         3683                       # Number of memory responses ignored because the instruction is squashed
system.switch_cpus_10.iew.lsq.thread0.invAddrLoads            0                       # Number of loads ignored due to an invalid address
system.switch_cpus_10.iew.lsq.thread0.invAddrSwpfs            0                       # Number of software prefetches ignored due to an invalid address
system.switch_cpus_10.iew.lsq.thread0.memOrderViolation          178                       # Number of memory ordering violations
system.switch_cpus_10.iew.lsq.thread0.rescheduledLoads          312                       # Number of loads that were rescheduled
system.switch_cpus_10.iew.lsq.thread0.squashedLoads      5317843                       # Number of loads squashed
system.switch_cpus_10.iew.lsq.thread0.squashedStores      1263517                       # Number of stores squashed
system.switch_cpus_10.iew.memOrderViolationEvents          178                       # Number of memory order violations
system.switch_cpus_10.iew.predictedNotTakenIncorrect      1434809                       # Number of branches that were predicted not taken incorrectly
system.switch_cpus_10.iew.predictedTakenIncorrect       334330                       # Number of branches that were predicted taken incorrectly
system.switch_cpus_10.iew.wb_consumers      189653562                       # num instructions consuming a value
system.switch_cpus_10.iew.wb_count          140441246                       # cumulative count of insts written-back
system.switch_cpus_10.iew.wb_fanout          0.556387                       # average fanout of values written-back
system.switch_cpus_10.iew.wb_producers      105520754                       # num instructions producing a value
system.switch_cpus_10.iew.wb_rate            2.473447                       # insts written-back per cycle
system.switch_cpus_10.iew.wb_sent           140793951                       # cumulative count of insts sent to commit
system.switch_cpus_10.int_regfile_reads     182906082                       # number of integer regfile reads
system.switch_cpus_10.int_regfile_writes    110073511                       # number of integer regfile writes
system.switch_cpus_10.ipc                    0.880598                       # IPC: Instructions Per Cycle
system.switch_cpus_10.ipc_total              0.880598                       # IPC: Total IPC of All Threads
system.switch_cpus_10.iq.FU_type_0::No_OpClass      2703982      1.86%      1.86% # Type of FU issued
system.switch_cpus_10.iq.FU_type_0::IntAlu    115016595     79.32%     81.18% # Type of FU issued
system.switch_cpus_10.iq.FU_type_0::IntMult       568480      0.39%     81.57% # Type of FU issued
system.switch_cpus_10.iq.FU_type_0::IntDiv        19074      0.01%     81.59% # Type of FU issued
system.switch_cpus_10.iq.FU_type_0::FloatAdd       562120      0.39%     81.97% # Type of FU issued
system.switch_cpus_10.iq.FU_type_0::FloatCmp            0      0.00%     81.97% # Type of FU issued
system.switch_cpus_10.iq.FU_type_0::FloatCvt            0      0.00%     81.97% # Type of FU issued
system.switch_cpus_10.iq.FU_type_0::FloatMult            0      0.00%     81.97% # Type of FU issued
system.switch_cpus_10.iq.FU_type_0::FloatMultAcc            0      0.00%     81.97% # Type of FU issued
system.switch_cpus_10.iq.FU_type_0::FloatDiv            0      0.00%     81.97% # Type of FU issued
system.switch_cpus_10.iq.FU_type_0::FloatMisc            0      0.00%     81.97% # Type of FU issued
system.switch_cpus_10.iq.FU_type_0::FloatSqrt            0      0.00%     81.97% # Type of FU issued
system.switch_cpus_10.iq.FU_type_0::SimdAdd       733602      0.51%     82.48% # Type of FU issued
system.switch_cpus_10.iq.FU_type_0::SimdAddAcc            0      0.00%     82.48% # Type of FU issued
system.switch_cpus_10.iq.FU_type_0::SimdAlu      3202558      2.21%     84.69% # Type of FU issued
system.switch_cpus_10.iq.FU_type_0::SimdCmp        12012      0.01%     84.70% # Type of FU issued
system.switch_cpus_10.iq.FU_type_0::SimdCvt      2413030      1.66%     86.36% # Type of FU issued
system.switch_cpus_10.iq.FU_type_0::SimdMisc      1440044      0.99%     87.35% # Type of FU issued
system.switch_cpus_10.iq.FU_type_0::SimdMult            0      0.00%     87.35% # Type of FU issued
system.switch_cpus_10.iq.FU_type_0::SimdMultAcc            0      0.00%     87.35% # Type of FU issued
system.switch_cpus_10.iq.FU_type_0::SimdShift       653995      0.45%     87.81% # Type of FU issued
system.switch_cpus_10.iq.FU_type_0::SimdShiftAcc            0      0.00%     87.81% # Type of FU issued
system.switch_cpus_10.iq.FU_type_0::SimdDiv            0      0.00%     87.81% # Type of FU issued
system.switch_cpus_10.iq.FU_type_0::SimdSqrt            0      0.00%     87.81% # Type of FU issued
system.switch_cpus_10.iq.FU_type_0::SimdFloatAdd            0      0.00%     87.81% # Type of FU issued
system.switch_cpus_10.iq.FU_type_0::SimdFloatAlu            0      0.00%     87.81% # Type of FU issued
system.switch_cpus_10.iq.FU_type_0::SimdFloatCmp            0      0.00%     87.81% # Type of FU issued
system.switch_cpus_10.iq.FU_type_0::SimdFloatCvt          133      0.00%     87.81% # Type of FU issued
system.switch_cpus_10.iq.FU_type_0::SimdFloatDiv            0      0.00%     87.81% # Type of FU issued
system.switch_cpus_10.iq.FU_type_0::SimdFloatMisc            0      0.00%     87.81% # Type of FU issued
system.switch_cpus_10.iq.FU_type_0::SimdFloatMult            0      0.00%     87.81% # Type of FU issued
system.switch_cpus_10.iq.FU_type_0::SimdFloatMultAcc            0      0.00%     87.81% # Type of FU issued
system.switch_cpus_10.iq.FU_type_0::SimdFloatSqrt            0      0.00%     87.81% # Type of FU issued
system.switch_cpus_10.iq.FU_type_0::SimdReduceAdd            0      0.00%     87.81% # Type of FU issued
system.switch_cpus_10.iq.FU_type_0::SimdReduceAlu            0      0.00%     87.81% # Type of FU issued
system.switch_cpus_10.iq.FU_type_0::SimdReduceCmp            0      0.00%     87.81% # Type of FU issued
system.switch_cpus_10.iq.FU_type_0::SimdFloatReduceAdd            0      0.00%     87.81% # Type of FU issued
system.switch_cpus_10.iq.FU_type_0::SimdFloatReduceCmp            0      0.00%     87.81% # Type of FU issued
system.switch_cpus_10.iq.FU_type_0::SimdAes            0      0.00%     87.81% # Type of FU issued
system.switch_cpus_10.iq.FU_type_0::SimdAesMix            0      0.00%     87.81% # Type of FU issued
system.switch_cpus_10.iq.FU_type_0::SimdSha1Hash            0      0.00%     87.81% # Type of FU issued
system.switch_cpus_10.iq.FU_type_0::SimdSha1Hash2            0      0.00%     87.81% # Type of FU issued
system.switch_cpus_10.iq.FU_type_0::SimdSha256Hash            0      0.00%     87.81% # Type of FU issued
system.switch_cpus_10.iq.FU_type_0::SimdSha256Hash2            0      0.00%     87.81% # Type of FU issued
system.switch_cpus_10.iq.FU_type_0::SimdShaSigma2            0      0.00%     87.81% # Type of FU issued
system.switch_cpus_10.iq.FU_type_0::SimdShaSigma3            0      0.00%     87.81% # Type of FU issued
system.switch_cpus_10.iq.FU_type_0::SimdPredAlu            0      0.00%     87.81% # Type of FU issued
system.switch_cpus_10.iq.FU_type_0::MemRead     10747131      7.41%     95.22% # Type of FU issued
system.switch_cpus_10.iq.FU_type_0::MemWrite      3160041      2.18%     97.40% # Type of FU issued
system.switch_cpus_10.iq.FU_type_0::FloatMemRead      3666416      2.53%     99.92% # Type of FU issued
system.switch_cpus_10.iq.FU_type_0::FloatMemWrite       109651      0.08%    100.00% # Type of FU issued
system.switch_cpus_10.iq.FU_type_0::IprAccess            0      0.00%    100.00% # Type of FU issued
system.switch_cpus_10.iq.FU_type_0::InstPrefetch            0      0.00%    100.00% # Type of FU issued
system.switch_cpus_10.iq.FU_type_0::total    145008864                       # Type of FU issued
system.switch_cpus_10.iq.fp_alu_accesses     13224239                       # Number of floating point alu accesses
system.switch_cpus_10.iq.fp_inst_queue_reads     26125573                       # Number of floating instruction queue reads
system.switch_cpus_10.iq.fp_inst_queue_wakeup_accesses     11604387                       # Number of floating instruction queue wakeup accesses
system.switch_cpus_10.iq.fp_inst_queue_writes     23298164                       # Number of floating instruction queue writes
system.switch_cpus_10.iq.fu_busy_cnt          2322321                       # FU busy when requested
system.switch_cpus_10.iq.fu_busy_rate        0.016015                       # FU busy rate (busy events/executed inst)
system.switch_cpus_10.iq.fu_full::No_OpClass            0      0.00%      0.00% # attempts to use FU when none available
system.switch_cpus_10.iq.fu_full::IntAlu      1898343     81.74%     81.74% # attempts to use FU when none available
system.switch_cpus_10.iq.fu_full::IntMult            0      0.00%     81.74% # attempts to use FU when none available
system.switch_cpus_10.iq.fu_full::IntDiv            0      0.00%     81.74% # attempts to use FU when none available
system.switch_cpus_10.iq.fu_full::FloatAdd            0      0.00%     81.74% # attempts to use FU when none available
system.switch_cpus_10.iq.fu_full::FloatCmp            0      0.00%     81.74% # attempts to use FU when none available
system.switch_cpus_10.iq.fu_full::FloatCvt            0      0.00%     81.74% # attempts to use FU when none available
system.switch_cpus_10.iq.fu_full::FloatMult            0      0.00%     81.74% # attempts to use FU when none available
system.switch_cpus_10.iq.fu_full::FloatMultAcc            0      0.00%     81.74% # attempts to use FU when none available
system.switch_cpus_10.iq.fu_full::FloatDiv            0      0.00%     81.74% # attempts to use FU when none available
system.switch_cpus_10.iq.fu_full::FloatMisc            0      0.00%     81.74% # attempts to use FU when none available
system.switch_cpus_10.iq.fu_full::FloatSqrt            0      0.00%     81.74% # attempts to use FU when none available
system.switch_cpus_10.iq.fu_full::SimdAdd           67      0.00%     81.75% # attempts to use FU when none available
system.switch_cpus_10.iq.fu_full::SimdAddAcc            0      0.00%     81.75% # attempts to use FU when none available
system.switch_cpus_10.iq.fu_full::SimdAlu       243269     10.48%     92.22% # attempts to use FU when none available
system.switch_cpus_10.iq.fu_full::SimdCmp           11      0.00%     92.22% # attempts to use FU when none available
system.switch_cpus_10.iq.fu_full::SimdCvt         2975      0.13%     92.35% # attempts to use FU when none available
system.switch_cpus_10.iq.fu_full::SimdMisc        48244      2.08%     94.43% # attempts to use FU when none available
system.switch_cpus_10.iq.fu_full::SimdMult            0      0.00%     94.43% # attempts to use FU when none available
[...]
system.cpu1.l2cache.ReadSharedReq_avg_mshr_miss_latency::.switch_cpus1.data 154329.970507                       # average ReadSharedReq mshr miss latency
system.cpu1.l2cache.ReadSharedReq_avg_mshr_miss_latency::.switch_cpus_11.data 155362.460089                       # average ReadSharedReq mshr miss latency
system.cpu1.l2cache.ReadSharedReq_avg_mshr_miss_latency::total 155302.954375                       # average ReadSharedReq mshr miss latency
system.cpu1.l2cache.tags.pwrStateResidencyTicks::UNDEFINED 1319132841036                       # Cumulative time (in ticks) in various power states
system.cpu1.l2cache.tags.tagsinuse          72.447689                       # Cycle average of tags in use
system.cpu1.l2cache.tags.total_refs            104439                       # Total number of references to valid blocks.
system.cpu1.l2cache.tags.sampled_refs           28057                       # Sample count of references to valid blocks.
system.cpu1.l2cache.tags.avg_refs            3.722387                       # Average number of references to valid blocks.
system.cpu1.l2cache.tags.warmup_cycle    1293351708033                       # Cycle when the warmup percentage was hit.
system.cpu1.l2cache.tags.occ_blocks::.cpu1.inst     0.003679                       # Average occupied blocks per requestor
system.cpu1.l2cache.tags.occ_blocks::.cpu1.data     0.019544                       # Average occupied blocks per requestor
system.cpu1.l2cache.tags.occ_blocks::.cpu1.dcache.prefetcher     0.113354                       # Average occupied blocks per requestor
system.cpu1.l2cache.tags.occ_blocks::.switch_cpus1.inst     0.684034                       # Average occupied blocks per requestor
system.cpu1.l2cache.tags.occ_blocks::.switch_cpus1.data     9.779060                       # Average occupied blocks per requestor
system.cpu1.l2cache.tags.occ_blocks::.switch_cpus_11.inst     0.191629                       # Average occupied blocks per requestor
system.cpu1.l2cache.tags.occ_blocks::.switch_cpus_11.data    61.656389                       # Average occupied blocks per requestor
system.cpu1.l2cache.tags.occ_percent::.cpu1.inst     0.000001                       # Average percentage of cache occupancy
system.cpu1.l2cache.tags.occ_percent::.cpu1.data     0.000005                       # Average percentage of cache occupancy
system.cpu1.l2cache.tags.occ_percent::.cpu1.dcache.prefetcher     0.000028                       # Average percentage of cache occupancy
system.cpu1.l2cache.tags.occ_percent::.switch_cpus1.inst     0.000167                       # Average percentage of cache occupancy
system.cpu1.l2cache.tags.occ_percent::.switch_cpus1.data     0.002387                       # Average percentage of cache occupancy
system.cpu1.l2cache.tags.occ_percent::.switch_cpus_11.inst     0.000047                       # Average percentage of cache occupancy
system.cpu1.l2cache.tags.occ_percent::.switch_cpus_11.data     0.015053                       # Average percentage of cache occupancy
system.cpu1.l2cache.tags.occ_percent::total     0.017687                       # Average percentage of cache occupancy
system.cpu1.l2cache.tags.occ_task_id_blocks::1022           10                       # Occupied blocks per task id
system.cpu1.l2cache.tags.occ_task_id_blocks::1024         4086                       # Occupied blocks per task id
system.cpu1.l2cache.tags.age_task_id_blocks_1022::3            6                       # Occupied blocks per task id
system.cpu1.l2cache.tags.age_task_id_blocks_1022::4            4                       # Occupied blocks per task id
system.cpu1.l2cache.tags.age_task_id_blocks_1024::0           13                       # Occupied blocks per task id
system.cpu1.l2cache.tags.age_task_id_blocks_1024::1           70                       # Occupied blocks per task id
system.cpu1.l2cache.tags.age_task_id_blocks_1024::2          940                       # Occupied blocks per task id
system.cpu1.l2cache.tags.age_task_id_blocks_1024::3         2555                       # Occupied blocks per task id
system.cpu1.l2cache.tags.age_task_id_blocks_1024::4          508                       # Occupied blocks per task id
system.cpu1.l2cache.tags.occ_task_id_percent::1022     0.002441                       # Percentage of cache occupancy per task id
system.cpu1.l2cache.tags.occ_task_id_percent::1024     0.997559                       # Percentage of cache occupancy per task id
system.cpu1.l2cache.tags.tag_accesses         1699177                       # Number of tag accesses
system.cpu1.l2cache.tags.data_accesses        1699177                       # Number of data accesses
system.cpu1.toL2Bus.pwrStateResidencyTicks::UNDEFINED 1319132841036                       # Cumulative time (in ticks) in various power states
system.cpu1.toL2Bus.trans_dist::ReadResp        52503                       # Transaction distribution
system.cpu1.toL2Bus.trans_dist::WritebackDirty          169                       # Transaction distribution
system.cpu1.toL2Bus.trans_dist::CleanEvict        75746                       # Transaction distribution
system.cpu1.toL2Bus.trans_dist::ReadExReq          139                       # Transaction distribution
system.cpu1.toL2Bus.trans_dist::ReadExResp          139                       # Transaction distribution
system.cpu1.toL2Bus.trans_dist::ReadCleanReq          286                       # Transaction distribution
system.cpu1.toL2Bus.trans_dist::ReadSharedReq        52217                       # Transaction distribution
system.cpu1.toL2Bus.pkt_count_system.cpu1.icache.mem_side::system.cpu1.l2cache.cpu_side          572                       # Packet count per connected master and slave (bytes)
system.cpu1.toL2Bus.pkt_count_system.cpu1.dcache.mem_side::system.cpu1.l2cache.cpu_side       156556                       # Packet count per connected master and slave (bytes)
system.cpu1.toL2Bus.pkt_count::total           157128                       # Packet count per connected master and slave (bytes)
system.cpu1.toL2Bus.pkt_size_system.cpu1.icache.mem_side::system.cpu1.l2cache.cpu_side        18304                       # Cumulative packet size per connected master and slave (bytes)
system.cpu1.toL2Bus.pkt_size_system.cpu1.dcache.mem_side::system.cpu1.l2cache.cpu_side      3361088                       # Cumulative packet size per connected master and slave (bytes)
system.cpu1.toL2Bus.pkt_size::total           3379392                       # Cumulative packet size per connected master and slave (bytes)
system.cpu1.toL2Bus.snoops                      24071                       # Total snoops (count)
system.cpu1.toL2Bus.snoopTraffic                  512                       # Total snoop traffic (bytes)
system.cpu1.toL2Bus.snoop_fanout::samples        76713                       # Request fanout histogram
system.cpu1.toL2Bus.snoop_fanout::mean       0.005931                       # Request fanout histogram
system.cpu1.toL2Bus.snoop_fanout::stdev      0.076786                       # Request fanout histogram
system.cpu1.toL2Bus.snoop_fanout::underflows            0      0.00%      0.00% # Request fanout histogram
system.cpu1.toL2Bus.snoop_fanout::0             76258     99.41%     99.41% # Request fanout histogram
system.cpu1.toL2Bus.snoop_fanout::1               455      0.59%    100.00% # Request fanout histogram
system.cpu1.toL2Bus.snoop_fanout::2                 0      0.00%    100.00% # Request fanout histogram
system.cpu1.toL2Bus.snoop_fanout::3                 0      0.00%    100.00% # Request fanout histogram
system.cpu1.toL2Bus.snoop_fanout::4                 0      0.00%    100.00% # Request fanout histogram
system.cpu1.toL2Bus.snoop_fanout::overflows            0      0.00%    100.00% # Request fanout histogram
system.cpu1.toL2Bus.snoop_fanout::min_value            0                       # Request fanout histogram
system.cpu1.toL2Bus.snoop_fanout::max_value            1                       # Request fanout histogram
system.cpu1.toL2Bus.snoop_fanout::total         76713                       # Request fanout histogram
system.cpu1.toL2Bus.reqLayer0.occupancy      43738214                       # Layer occupancy (ticks)
system.cpu1.toL2Bus.reqLayer0.utilization          0.2                       # Layer utilization (%)
system.cpu1.toL2Bus.respLayer1.occupancy     65496105                       # Layer occupancy (ticks)
system.cpu1.toL2Bus.respLayer1.utilization          0.3                       # Layer utilization (%)
system.cpu1.toL2Bus.respLayer0.occupancy       356535                       # Layer occupancy (ticks)
system.cpu1.toL2Bus.respLayer0.utilization          0.0                       # Layer utilization (%)
system.switch_cpus_10.pwrStateResidencyTicks::OFF  25781133420                       # Cumulative time (in ticks) in various power states
system.switch_cpus_10.dtb.walker.pwrStateResidencyTicks::UNDEFINED 1319132841036                       # Cumulative time (in ticks) in various power states
system.switch_cpus_10.itb.walker.pwrStateResidencyTicks::UNDEFINED 1319132841036                       # Cumulative time (in ticks) in various power states
system.switch_cpus_11.pwrStateResidencyTicks::OFF  25781133420                       # Cumulative time (in ticks) in various power states
system.switch_cpus_11.dtb.walker.pwrStateResidencyTicks::UNDEFINED 1319132841036                       # Cumulative time (in ticks) in various power states
system.switch_cpus_11.itb.walker.pwrStateResidencyTicks::UNDEFINED 1319132841036                       # Cumulative time (in ticks) in various power states
system.cpu_voltage_domain.voltage                   1                       # Voltage in Volts
system.switch_cpus1.numPwrStateTransitions            1                       # Number of power state transitions
system.switch_cpus1.pwrStateResidencyTicks::UNDEFINED 1293351707616                       # Cumulative time (in ticks) in various power states
system.switch_cpus1.pwrStateResidencyTicks::OFF  25781133420                       # Cumulative time (in ticks) in various power states
system.switch_cpus1.dtb.walker.pwrStateResidencyTicks::UNDEFINED 1319132841036                       # Cumulative time (in ticks) in various power states
system.switch_cpus1.itb.walker.pwrStateResidencyTicks::UNDEFINED 1319132841036                       # Cumulative time (in ticks) in various power states
system.mem_ctrls.pwrStateResidencyTicks::UNDEFINED 1319132841036                       # Cumulative time (in ticks) in various power states
system.mem_ctrls.bytes_read::.cpu0.inst            64                       # Number of bytes read from this memory
system.mem_ctrls.bytes_read::.cpu0.dcache.prefetcher        49728                       # Number of bytes read from this memory
system.mem_ctrls.bytes_read::.cpu1.inst            64                       # Number of bytes read from this memory
system.mem_ctrls.bytes_read::.cpu1.data            64                       # Number of bytes read from this memory
system.mem_ctrls.bytes_read::.cpu1.dcache.prefetcher         1024                       # Number of bytes read from this memory
system.mem_ctrls.bytes_read::.switch_cpus0.inst        20864                       # Number of bytes read from this memory
system.mem_ctrls.bytes_read::.switch_cpus0.data        57920                       # Number of bytes read from this memory
system.mem_ctrls.bytes_read::.switch_cpus1.inst        12672                       # Number of bytes read from this memory
system.mem_ctrls.bytes_read::.switch_cpus1.data        70784                       # Number of bytes read from this memory
system.mem_ctrls.bytes_read::.switch_cpus_10.inst        24448                       # Number of bytes read from this memory
system.mem_ctrls.bytes_read::.switch_cpus_10.data       296448                       # Number of bytes read from this memory
system.mem_ctrls.bytes_read::.switch_cpus_11.inst         5568                       # Number of bytes read from this memory
system.mem_ctrls.bytes_read::.switch_cpus_11.data      1704192                       # Number of bytes read from this memory
system.mem_ctrls.bytes_read::total            2243840                       # Number of bytes read from this memory
system.mem_ctrls.bytes_inst_read::.cpu0.inst           64                       # Number of instructions bytes read from this memory
system.mem_ctrls.bytes_inst_read::.cpu1.inst           64                       # Number of instructions bytes read from this memory
system.mem_ctrls.bytes_inst_read::.switch_cpus0.inst        20864                       # Number of instructions bytes read from this memory
system.mem_ctrls.bytes_inst_read::.switch_cpus1.inst        12672                       # Number of instructions bytes read from this memory
system.mem_ctrls.bytes_inst_read::.switch_cpus_10.inst        24448                       # Number of instructions bytes read from this memory
system.mem_ctrls.bytes_inst_read::.switch_cpus_11.inst         5568                       # Number of instructions bytes read from this memory
system.mem_ctrls.bytes_inst_read::total         63680                       # Number of instructions bytes read from this memory
system.mem_ctrls.num_reads::.cpu0.inst              1                       # Number of read requests responded to by this memory
system.mem_ctrls.num_reads::.cpu0.dcache.prefetcher          777                       # Number of read requests responded to by this memory
system.mem_ctrls.num_reads::.cpu1.inst              1                       # Number of read requests responded to by this memory
system.mem_ctrls.num_reads::.cpu1.data              1                       # Number of read requests responded to by this memory
system.mem_ctrls.num_reads::.cpu1.dcache.prefetcher           16                       # Number of read requests responded to by this memory
system.mem_ctrls.num_reads::.switch_cpus0.inst          326                       # Number of read requests responded to by this memory
system.mem_ctrls.num_reads::.switch_cpus0.data          905                       # Number of read requests responded to by this memory
system.mem_ctrls.num_reads::.switch_cpus1.inst          198                       # Number of read requests responded to by this memory
system.mem_ctrls.num_reads::.switch_cpus1.data         1106                       # Number of read requests responded to by this memory
system.mem_ctrls.num_reads::.switch_cpus_10.inst          382                       # Number of read requests responded to by this memory
system.mem_ctrls.num_reads::.switch_cpus_10.data         4632                       # Number of read requests responded to by this memory
system.mem_ctrls.num_reads::.switch_cpus_11.inst           87                       # Number of read requests responded to by this memory
system.mem_ctrls.num_reads::.switch_cpus_11.data        26628                       # Number of read requests responded to by this memory
system.mem_ctrls.num_reads::total               35060                       # Number of read requests responded to by this memory
system.mem_ctrls.bw_read::.cpu0.inst             2482                       # Total read bandwidth from this memory (bytes/s)
system.mem_ctrls.bw_read::.cpu0.dcache.prefetcher      1928852                       # Total read bandwidth from this memory (bytes/s)
system.mem_ctrls.bw_read::.cpu1.inst             2482                       # Total read bandwidth from this memory (bytes/s)
system.mem_ctrls.bw_read::.cpu1.data             2482                       # Total read bandwidth from this memory (bytes/s)
system.mem_ctrls.bw_read::.cpu1.dcache.prefetcher        39719                       # Total read bandwidth from this memory (bytes/s)
system.mem_ctrls.bw_read::.switch_cpus0.inst       809274                       # Total read bandwidth from this memory (bytes/s)
system.mem_ctrls.bw_read::.switch_cpus0.data      2246604                       # Total read bandwidth from this memory (bytes/s)
system.mem_ctrls.bw_read::.switch_cpus1.inst       491522                       # Total read bandwidth from this memory (bytes/s)
system.mem_ctrls.bw_read::.switch_cpus1.data      2745574                       # Total read bandwidth from this memory (bytes/s)
system.mem_ctrls.bw_read::.switch_cpus_10.inst       948290                       # Total read bandwidth from this memory (bytes/s)
system.mem_ctrls.bw_read::.switch_cpus_10.data     11498641                       # Total read bandwidth from this memory (bytes/s)
system.mem_ctrls.bw_read::.switch_cpus_11.inst       215972                       # Total read bandwidth from this memory (bytes/s)
system.mem_ctrls.bw_read::.switch_cpus_11.data     66102292                       # Total read bandwidth from this memory (bytes/s)
system.mem_ctrls.bw_read::total              87034187                       # Total read bandwidth from this memory (bytes/s)
system.mem_ctrls.bw_inst_read::.cpu0.inst         2482                       # Instruction read bandwidth from this memory (bytes/s)
system.mem_ctrls.bw_inst_read::.cpu1.inst         2482                       # Instruction read bandwidth from this memory (bytes/s)
system.mem_ctrls.bw_inst_read::.switch_cpus0.inst       809274                       # Instruction read bandwidth from this memory (bytes/s)
system.mem_ctrls.bw_inst_read::.switch_cpus1.inst       491522                       # Instruction read bandwidth from this memory (bytes/s)
system.mem_ctrls.bw_inst_read::.switch_cpus_10.inst       948290                       # Instruction read bandwidth from this memory (bytes/s)
system.mem_ctrls.bw_inst_read::.switch_cpus_11.inst       215972                       # Instruction read bandwidth from this memory (bytes/s)
system.mem_ctrls.bw_inst_read::total          2470023                       # Instruction read bandwidth from this memory (bytes/s)
system.mem_ctrls.bw_total::.cpu0.inst            2482                       # Total bandwidth to/from this memory (bytes/s)
system.mem_ctrls.bw_total::.cpu0.dcache.prefetcher      1928852                       # Total bandwidth to/from this memory (bytes/s)
system.mem_ctrls.bw_total::.cpu1.inst            2482                       # Total bandwidth to/from this memory (bytes/s)
system.mem_ctrls.bw_total::.cpu1.data            2482                       # Total bandwidth to/from this memory (bytes/s)
system.mem_ctrls.bw_total::.cpu1.dcache.prefetcher        39719                       # Total bandwidth to/from this memory (bytes/s)
system.mem_ctrls.bw_total::.switch_cpus0.inst       809274                       # Total bandwidth to/from this memory (bytes/s)
system.mem_ctrls.bw_total::.switch_cpus0.data      2246604                       # Total bandwidth to/from this memory (bytes/s)
system.mem_ctrls.bw_total::.switch_cpus1.inst       491522                       # Total bandwidth to/from this memory (bytes/s)
system.mem_ctrls.bw_total::.switch_cpus1.data      2745574                       # Total bandwidth to/from this memory (bytes/s)
system.mem_ctrls.bw_total::.switch_cpus_10.inst       948290                       # Total bandwidth to/from this memory (bytes/s)
system.mem_ctrls.bw_total::.switch_cpus_10.data     11498641                       # Total bandwidth to/from this memory (bytes/s)
system.mem_ctrls.bw_total::.switch_cpus_11.inst       215972                       # Total bandwidth to/from this memory (bytes/s)
system.mem_ctrls.bw_total::.switch_cpus_11.data     66102292                       # Total bandwidth to/from this memory (bytes/s)
system.mem_ctrls.bw_total::total             87034187                       # Total bandwidth to/from this memory (bytes/s)
system.cpu_clk_domain.clock                       417                       # Clock period in ticks

---------- End Simulation Statistics   ----------
