
---------- Begin Simulation Statistics ----------
final_tick                               1319271209142                       # Number of ticks from beginning of simulation (restored from checkpoints and never reset)
host_inst_rate                                 136930                       # Simulator instruction rate (inst/s)
host_mem_usage                                4675504                       # Number of bytes of host memory used
host_op_rate                                   295312                       # Simulator op (including micro ops) rate (op/s)
host_seconds                                   715.72                       # Real time elapsed on the host
host_tick_rate                               36214613                       # Simulator tick rate (ticks/s)
sim_freq                                 1000000000000                       # Frequency of simulated ticks
sim_insts                                    98003489                       # Number of instructions simulated
sim_ops                                     211360331                       # Number of ops (including micro ops) simulated
sim_seconds                                  0.025920                       # Number of seconds simulated
sim_ticks                                 25919501526                       # Number of ticks simulated
system.cpu0.committedInsts                          2                       # Number of instructions committed
system.cpu0.committedOps                            4                       # Number of ops (including micro ops) committed
system.cpu0.dtb.rdAccesses                          0                       # TLB accesses on read requests
system.cpu0.dtb.rdMisses                            0                       # TLB misses on read requests
system.cpu0.dtb.wrAccesses                          0                       # TLB accesses on write requests
system.cpu0.dtb.wrMisses                            0                       # TLB misses on write requests
system.cpu0.idle_fraction                           0                       # Percentage of idle cycles
system.cpu0.itb.rdAccesses                          0                       # TLB accesses on read requests
system.cpu0.itb.rdMisses                            0                       # TLB misses on read requests
system.cpu0.itb.wrAccesses                          2                       # TLB accesses on write requests
system.cpu0.itb.wrMisses                            0                       # TLB misses on write requests
system.cpu0.not_idle_fraction                       1                       # Percentage of non-idle cycles
system.cpu0.numCycles                               4                       # number of cpu cycles simulated
system.cpu0.numWorkItemsCompleted                   0                       # number of work items this cpu completed
system.cpu0.numWorkItemsStarted                     0                       # number of work items this cpu started
system.cpu0.num_busy_cycles                         4                       # Number of busy cycles
system.cpu0.num_cc_register_reads                   1                       # number of times the CC registers were read
system.cpu0.num_cc_register_writes                  4                       # number of times the CC registers were written
system.cpu0.num_conditional_control_insts            0                       # number of instructions that are conditional controls
system.cpu0.num_fp_alu_accesses                     0                       # Number of float alu accesses
system.cpu0.num_fp_insts                            0                       # number of float instructions
system.cpu0.num_fp_register_reads                   0                       # number of times the floating registers were read
system.cpu0.num_fp_register_writes                  0                       # number of times the floating registers were written
system.cpu0.num_func_calls                          0                       # number of times a function call or return occured
system.cpu0.num_idle_cycles                         0                       # Number of idle cycles
system.cpu0.num_int_alu_accesses                    4                       # Number of integer alu accesses
system.cpu0.num_int_insts                           4                       # number of integer instructions
system.cpu0.num_int_register_reads                  4                       # number of times the integer registers were read
system.cpu0.num_int_register_writes                 4                       # number of times the integer registers were written
system.cpu0.num_load_insts                          0                       # Number of load instructions
system.cpu0.num_mem_refs                            0                       # number of memory refs
system.cpu0.num_store_insts                         0                       # Number of store instructions
system.cpu0.num_vec_alu_accesses                    0                       # Number of vector alu accesses
system.cpu0.num_vec_insts                           0                       # number of vector instructions
system.cpu0.num_vec_register_reads                  0                       # number of times the vector registers were read
system.cpu0.num_vec_register_writes                 0                       # number of times the vector registers were written
system.cpu0.op_class::No_OpClass                    0      0.00%      0.00% # Class of executed instruction
system.cpu0.op_class::IntAlu                        4    100.00%    100.00% # Class of executed instruction
system.cpu0.op_class::IntMult                       0      0.00%    100.00% # Class of executed instruction
system.cpu0.op_class::IntDiv                        0      0.00%    100.00% # Class of executed instruction
system.cpu0.op_class::FloatAdd                      0      0.00%    100.00% # Class of executed instruction
system.cpu0.op_class::FloatCmp                      0      0.00%    100.00% # Class of executed instruction
system.cpu0.op_class::FloatCvt                      0      0.00%    100.00% # Class of executed instruction
system.cpu0.op_class::FloatMult                     0      0.00%    100.00% # Class of executed instruction
system.cpu0.op_class::FloatMultAcc                  0      0.00%    100.00% # Class of executed instruction
system.cpu0.op_class::FloatDiv                      0      0.00%    100.00% # Class of executed instruction
system.cpu0.op_class::FloatMisc                     0      0.00%    100.00% # Class of executed instruction
system.cpu0.op_class::FloatSqrt                     0      0.00%    100.00% # Class of executed instruction
system.cpu0.op_class::SimdAdd                       0      0.00%    100.00% # Class of executed instruction
system.cpu0.op_class::SimdAddAcc                    0      0.00%    100.00% # Class of executed instruction
system.cpu0.op_class::SimdAlu                       0      0.00%    100.00% # Class of executed instruction
system.cpu0.op_class::SimdCmp                       0      0.00%    100.00% # Class of executed instruction
system.cpu0.op_class::SimdCvt                       0      0.00%    100.00% # Class of executed instruction
system.cpu0.op_class::SimdMisc                      0      0.00%    100.00% # Class of executed instruction
system.cpu0.op_class::SimdMult                      0      0.00%    100.00% # Class of executed instruction
system.cpu0.op_class::SimdMultAcc                   0      0.00%    100.00% # Class of executed instruction
system.cpu0.op_class::SimdShift                     0      0.00%    100.00% # Class of executed instruction
system.cpu0.op_class::SimdShiftAcc                  0      0.00%    100.00% # Class of executed instruction
system.cpu0.op_class::SimdDiv                       0      0.00%    100.00% # Class of executed instruction
system.cpu0.op_class::SimdSqrt                      0      0.00%    100.00% # Class of executed instruction
system.cpu0.op_class::SimdFloatAdd                  0      0.00%    100.00% # Class of executed instruction
system.cpu0.op_class::SimdFloatAlu                  0      0.00%    100.00% # Class of executed instruction
system.cpu0.op_class::SimdFloatCmp                  0      0.00%    100.00% # Class of executed instruction
system.cpu0.op_class::SimdFloatCvt                  0      0.00%    100.00% # Class of executed instruction
system.cpu0.op_class::SimdFloatDiv                  0      0.00%    100.00% # Class of executed instruction
system.cpu0.op_class::SimdFloatMisc                 0      0.00%    100.00% # Class of executed instruction
system.cpu0.op_class::SimdFloatMult                 0      0.00%    100.00% # Class of executed instruction
system.cpu0.op_class::SimdFloatMultAcc              0      0.00%    100.00% # Class of executed instruction
system.cpu0.op_class::SimdFloatSqrt                 0      0.00%    100.00% # Class of executed instruction
system.cpu0.op_class::SimdReduceAdd                 0      0.00%    100.00% # Class of executed instruction
system.cpu0.op_class::SimdReduceAlu                 0      0.00%    100.00% # Class of executed instruction
system.cpu0.op_class::SimdReduceCmp                 0      0.00%    100.00% # Class of executed instruction
system.cpu0.op_class::SimdFloatReduceAdd            0      0.00%    100.00% # Class of executed instruction
system.cpu0.op_class::SimdFloatReduceCmp            0      0.00%    100.00% # Class of executed instruction
system.cpu0.op_class::SimdAes                       0      0.00%    100.00% # Class of executed instruction
system.cpu0.op_class::SimdAesMix                    0      0.00%    100.00% # Class of executed instruction
system.cpu0.op_class::SimdSha1Hash                  0      0.00%    100.00% # Class of executed instruction
system.cpu0.op_class::SimdSha1Hash2                 0      0.00%    100.00% # Class of executed instruction
system.cpu0.op_class::SimdSha256Hash                0      0.00%    100.00% # Class of executed instruction
system.cpu0.op_class::SimdSha256Hash2               0      0.00%    100.00% # Class of executed instruction
system.cpu0.op_class::SimdShaSigma2                 0      0.00%    100.00% # Class of executed instruction
system.cpu0.op_class::SimdShaSigma3                 0      0.00%    100.00% # Class of executed instruction
system.cpu0.op_class::SimdPredAlu                   0      0.00%    100.00% # Class of executed instruction
system.cpu0.op_class::MemRead                       0      0.00%    100.00% # Class of executed instruction
system.cpu0.op_class::MemWrite                      0      0.00%    100.00% # Class of executed instruction
system.cpu0.op_class::FloatMemRead                  0      0.00%    100.00% # Class of executed instruction
system.cpu0.op_class::FloatMemWrite                 0      0.00%    100.00% # Class of executed instruction
system.cpu0.op_class::IprAccess                     0      0.00%    100.00% # Class of executed instruction
system.cpu0.op_class::InstPrefetch                  0      0.00%    100.00% # Class of executed instruction
system.cpu0.op_class::total                         4                       # Class of executed instruction
system.cpu0.toL2Bus.snoop_filter.hit_multi_requests           44                       # Number of requests hitting in the snoop filter with multiple (>1) holders of the requested data.
system.cpu0.toL2Bus.snoop_filter.hit_multi_snoops            0                       # Number of snoops hitting in the snoop filter with multiple (>1) holders of the requested data.
system.cpu0.toL2Bus.snoop_filter.hit_single_requests        12945                       # Number of requests hitting in the snoop filter with a single holder of the requested data.
system.cpu0.toL2Bus.snoop_filter.hit_single_snoops          587                       # Number of snoops hitting in the snoop filter with a single holder of the requested data.
system.cpu0.toL2Bus.snoop_filter.tot_requests        26905                       # Total number of requests made to the snoop filter.
system.cpu0.toL2Bus.snoop_filter.tot_snoops          587                       # Total number of snoops made to the snoop filter.
system.cpu0.toL3Bus.snoop_filter.hit_multi_requests            0                       # Number of requests hitting in the snoop filter with multiple (>1) holders of the requested data.
system.cpu0.toL3Bus.snoop_filter.hit_multi_snoops            0                       # Number of snoops hitting in the snoop filter with multiple (>1) holders of the requested data.
system.cpu0.toL3Bus.snoop_filter.hit_single_requests         2615                       # Number of requests hitting in the snoop filter with a single holder of the requested data.
system.cpu0.toL3Bus.snoop_filter.hit_single_snoops            0                       # Number of snoops hitting in the snoop filter with a single holder of the requested data.
system.cpu0.toL3Bus.snoop_filter.tot_requests         9750                       # Total number of requests made to the snoop filter.
system.cpu0.toL3Bus.snoop_filter.tot_snoops            0                       # Total number of snoops made to the snoop filter.
system.cpu0.workload.numSyscalls                    1                       # Number of system calls
system.cpu1.Branches                                1                       # Number of branches fetched
system.cpu1.committedInsts                          1                       # Number of instructions committed
system.cpu1.committedOps                            5                       # Number of ops (including micro ops) committed
system.cpu1.dtb.rdAccesses                          0                       # TLB accesses on read requests
system.cpu1.dtb.rdMisses                            0                       # TLB misses on read requests
system.cpu1.dtb.wrAccesses                          1                       # TLB accesses on write requests
system.cpu1.dtb.wrMisses                            0                       # TLB misses on write requests
system.cpu1.idle_fraction                           0                       # Percentage of idle cycles
system.cpu1.itb.rdAccesses                          0                       # TLB accesses on read requests
system.cpu1.itb.rdMisses                            0                       # TLB misses on read requests
system.cpu1.itb.wrAccesses                          2                       # TLB accesses on write requests
system.cpu1.itb.wrMisses                            0                       # TLB misses on write requests
system.cpu1.not_idle_fraction                       1                       # Percentage of non-idle cycles
system.cpu1.numCycles                               6                       # number of cpu cycles simulated
system.cpu1.numWorkItemsCompleted                   0                       # number of work items this cpu completed
system.cpu1.numWorkItemsStarted                     0                       # number of work items this cpu started
system.cpu1.num_busy_cycles                         6                       # Number of busy cycles
system.cpu1.num_conditional_control_insts            0                       # number of instructions that are conditional controls
system.cpu1.num_fp_alu_accesses                     0                       # Number of float alu accesses
system.cpu1.num_fp_insts                            0                       # number of float instructions
system.cpu1.num_fp_register_reads                   0                       # number of times the floating registers were read
system.cpu1.num_fp_register_writes                  0                       # number of times the floating registers were written
system.cpu1.num_func_calls                          1                       # number of times a function call or return occured
system.cpu1.num_idle_cycles                         0                       # Number of idle cycles
system.cpu1.num_int_alu_accesses                    5                       # Number of integer alu accesses
system.cpu1.num_int_insts                           5                       # number of integer instructions
system.cpu1.num_int_register_reads                  9                       # number of times the integer registers were read
system.cpu1.num_int_register_writes                 3                       # number of times the integer registers were written
system.cpu1.num_load_insts                          0                       # Number of load instructions
system.cpu1.num_mem_refs                            1                       # number of memory refs
system.cpu1.num_store_insts                         1                       # Number of store instructions
system.cpu1.num_vec_alu_accesses                    0                       # Number of vector alu accesses
system.cpu1.num_vec_insts                           0                       # number of vector instructions
system.cpu1.num_vec_register_reads                  0                       # number of times the vector registers were read
system.cpu1.num_vec_register_writes                 0                       # number of times the vector registers were written
system.cpu1.op_class::No_OpClass                    0      0.00%      0.00% # Class of executed instruction
system.cpu1.op_class::IntAlu                        4     80.00%     80.00% # Class of executed instruction
system.cpu1.op_class::IntMult                       0      0.00%     80.00% # Class of executed instruction
system.cpu1.op_class::IntDiv                        0      0.00%     80.00% # Class of executed instruction
system.cpu1.op_class::FloatAdd                      0      0.00%     80.00% # Class of executed instruction
system.cpu1.op_class::FloatCmp                      0      0.00%     80.00% # Class of executed instruction
system.cpu1.op_class::FloatCvt                      0      0.00%     80.00% # Class of executed instruction
system.cpu1.op_class::FloatMult                     0      0.00%     80.00% # Class of executed instruction
system.cpu1.op_class::FloatMultAcc                  0      0.00%     80.00% # Class of executed instruction
system.cpu1.op_class::FloatDiv                      0      0.00%     80.00% # Class of executed instruction
system.cpu1.op_class::FloatMisc                     0      0.00%     80.00% # Class of executed instruction
system.cpu1.op_class::FloatSqrt                     0      0.00%     80.00% # Class of executed instruction
system.cpu1.op_class::SimdAdd                       0      0.00%     80.00% # Class of executed instruction
system.cpu1.op_class::SimdAddAcc                    0      0.00%     80.00% # Class of executed instruction
system.cpu1.op_class::SimdAlu                       0      0.00%     80.00% # Class of executed instruction
system.cpu1.op_class::SimdCmp                       0      0.00%     80.00% # Class of executed instruction
system.cpu1.op_class::SimdCvt                       0      0.00%     80.00% # Class of executed instruction
system.cpu1.op_class::SimdMisc                      0      0.00%     80.00% # Class of executed instruction
system.cpu1.op_class::SimdMult                      0      0.00%     80.00% # Class of executed instruction
system.cpu1.op_class::SimdMultAcc                   0      0.00%     80.00% # Class of executed instruction
system.cpu1.op_class::SimdShift                     0      0.00%     80.00% # Class of executed instruction
system.cpu1.op_class::SimdShiftAcc                  0      0.00%     80.00% # Class of executed instruction
system.cpu1.op_class::SimdDiv                       0      0.00%     80.00% # Class of executed instruction
system.cpu1.op_class::SimdSqrt                      0      0.00%     80.00% # Class of executed instruction
system.cpu1.op_class::SimdFloatAdd                  0      0.00%     80.00% # Class of executed instruction
system.cpu1.op_class::SimdFloatAlu                  0      0.00%     80.00% # Class of executed instruction
system.cpu1.op_class::SimdFloatCmp                  0      0.00%     80.00% # Class of executed instruction
system.cpu1.op_class::SimdFloatCvt                  0      0.00%     80.00% # Class of executed instruction
system.cpu1.op_class::SimdFloatDiv                  0      0.00%     80.00% # Class of executed instruction
system.cpu1.op_class::SimdFloatMisc                 0      0.00%     80.00% # Class of executed instruction
system.cpu1.op_class::SimdFloatMult                 0      0.00%     80.00% # Class of executed instruction
system.cpu1.op_class::SimdFloatMultAcc              0      0.00%     80.00% # Class of executed instruction
system.cpu1.op_class::SimdFloatSqrt                 0      0.00%     80.00% # Class of executed instruction
system.cpu1.op_class::SimdReduceAdd                 0      0.00%     80.00% # Class of executed instruction
system.cpu1.op_class::SimdReduceAlu                 0      0.00%     80.00% # Class of executed instruction
system.cpu1.op_class::SimdReduceCmp                 0      0.00%     80.00% # Class of executed instruction
system.cpu1.op_class::SimdFloatReduceAdd            0      0.00%     80.00% # Class of executed instruction
system.cpu1.op_class::SimdFloatReduceCmp            0      0.00%     80.00% # Class of executed instruction
system.cpu1.op_class::SimdAes                       0      0.00%     80.00% # Class of executed instruction
system.cpu1.op_class::SimdAesMix                    0      0.00%     80.00% # Class of executed instruction
system.cpu1.op_class::SimdSha1Hash                  0      0.00%     80.00% # Class of executed instruction
system.cpu1.op_class::SimdSha1Hash2                 0      0.00%     80.00% # Class of executed instruction
system.cpu1.op_class::SimdSha256Hash                0      0.00%     80.00% # Class of executed instruction
system.cpu1.op_class::SimdSha256Hash2               0      0.00%     80.00% # Class of executed instruction
system.cpu1.op_class::SimdShaSigma2                 0      0.00%     80.00% # Class of executed instruction
system.cpu1.op_class::SimdShaSigma3                 0      0.00%     80.00% # Class of executed instruction
system.cpu1.op_class::SimdPredAlu                   0      0.00%     80.00% # Class of executed instruction
system.cpu1.op_class::MemRead                       0      0.00%     80.00% # Class of executed instruction
system.cpu1.op_class::MemWrite                      1     20.00%    100.00% # Class of executed instruction
system.cpu1.op_class::FloatMemRead                  0      0.00%    100.00% # Class of executed instruction
system.cpu1.op_class::FloatMemWrite                 0      0.00%    100.00% # Class of executed instruction
system.cpu1.op_class::IprAccess                     0      0.00%    100.00% # Class of executed instruction
system.cpu1.op_class::InstPrefetch                  0      0.00%    100.00% # Class of executed instruction
system.cpu1.op_class::total                         5                       # Class of executed instruction
system.cpu1.toL2Bus.snoop_filter.hit_multi_requests           46                       # Number of requests hitting in the snoop filter with multiple (>1) holders of the requested data.
system.cpu1.toL2Bus.snoop_filter.hit_multi_snoops            0                       # Number of snoops hitting in the snoop filter with multiple (>1) holders of the requested data.
system.cpu1.toL2Bus.snoop_filter.hit_single_requests        51945                       # Number of requests hitting in the snoop filter with a single holder of the requested data.
system.cpu1.toL2Bus.snoop_filter.hit_single_snoops          423                       # Number of snoops hitting in the snoop filter with a single holder of the requested data.
system.cpu1.toL2Bus.snoop_filter.tot_requests       104687                       # Total number of requests made to the snoop filter.
system.cpu1.toL2Bus.snoop_filter.tot_snoops          423                       # Total number of snoops made to the snoop filter.
system.cpu1.toL3Bus.snoop_filter.hit_multi_requests            0                       # Number of requests hitting in the snoop filter with multiple (>1) holders of the requested data.
system.cpu1.toL3Bus.snoop_filter.hit_multi_snoops            0                       # Number of snoops hitting in the snoop filter with multiple (>1) holders of the requested data.
system.cpu1.toL3Bus.snoop_filter.hit_single_requests        23758                       # Number of requests hitting in the snoop filter with a single holder of the requested data.
system.cpu1.toL3Bus.snoop_filter.hit_single_snoops          124                       # Number of snoops hitting in the snoop filter with a single holder of the requested data.
system.cpu1.toL3Bus.snoop_filter.tot_requests        51932                       # Total number of requests made to the snoop filter.
system.cpu1.toL3Bus.snoop_filter.tot_snoops          124                       # Total number of snoops made to the snoop filter.
system.cpu1.workload.numSyscalls                15642                       # Number of system calls
system.membus.snoop_filter.hit_multi_requests            0                       # Number of requests hitting in the snoop filter with multiple (>1) holders of the requested data.
system.membus.snoop_filter.hit_multi_snoops            0                       # Number of snoops hitting in the snoop filter with multiple (>1) holders of the requested data.
system.membus.snoop_filter.hit_single_requests          199                       # Number of requests hitting in the snoop filter with a single holder of the requested data.
system.membus.snoop_filter.hit_single_snoops            0                       # Number of snoops hitting in the snoop filter with a single holder of the requested data.
system.membus.snoop_filter.tot_requests         35338                       # Total number of requests made to the snoop filter.
system.membus.snoop_filter.tot_snoops               0                       # Total number of snoops made to the snoop filter.
system.switch_cpus0.Branches                   255810                       # Number of branches fetched
system.switch_cpus0.committedInsts            1000002                       # Number of instructions committed
system.switch_cpus0.committedOps              2500851                       # Number of ops (including micro ops) committed
system.switch_cpus0.dtb.rdAccesses             269795                       # TLB accesses on read requests
system.switch_cpus0.dtb.rdMisses                  100                       # TLB misses on read requests
system.switch_cpus0.dtb.wrAccesses              39263                       # TLB accesses on write requests
system.switch_cpus0.dtb.wrMisses                    9                       # TLB misses on write requests
system.switch_cpus0.idle_fraction            0.000000                       # Percentage of idle cycles
system.switch_cpus0.itb.rdAccesses                  0                       # TLB accesses on read requests
system.switch_cpus0.itb.rdMisses                    0                       # TLB misses on read requests
system.switch_cpus0.itb.wrAccesses            1291116                       # TLB accesses on write requests
system.switch_cpus0.itb.wrMisses                   30                       # TLB misses on write requests
system.switch_cpus0.not_idle_fraction        1.000000                       # Percentage of non-idle cycles
system.switch_cpus0.numCycles                 5048533                       # number of cpu cycles simulated
system.switch_cpus0.numWorkItemsCompleted            0                       # number of work items this cpu completed
system.switch_cpus0.numWorkItemsStarted             0                       # number of work items this cpu started
system.switch_cpus0.num_busy_cycles      5048532.512667                       # Number of busy cycles
system.switch_cpus0.num_cc_register_reads      2113136                       # number of times the CC registers were read
system.switch_cpus0.num_cc_register_writes       710683                       # number of times the CC registers were written
system.switch_cpus0.num_conditional_control_insts       188505                       # number of instructions that are conditional controls
system.switch_cpus0.num_fp_alu_accesses        303641                       # Number of float alu accesses
system.switch_cpus0.num_fp_insts               303641                       # number of float instructions
system.switch_cpus0.num_fp_register_reads       510265                       # number of times the floating registers were read
system.switch_cpus0.num_fp_register_writes       256758                       # number of times the floating registers were written
system.switch_cpus0.num_func_calls              38683                       # number of times a function call or return occured
system.switch_cpus0.num_idle_cycles          0.487333                       # Number of idle cycles
system.switch_cpus0.num_int_alu_accesses      2259108                       # Number of integer alu accesses
system.switch_cpus0.num_int_insts             2259108                       # number of integer instructions
system.switch_cpus0.num_int_register_reads      4297908                       # number of times the integer registers were read
system.switch_cpus0.num_int_register_writes      1935891                       # number of times the integer registers were written
system.switch_cpus0.num_load_insts             267905                       # Number of load instructions
system.switch_cpus0.num_mem_refs               307166                       # number of memory refs
system.switch_cpus0.num_store_insts             39261                       # Number of store instructions
system.switch_cpus0.num_vec_alu_accesses            0                       # Number of vector alu accesses
system.switch_cpus0.num_vec_insts                   0                       # number of vector instructions
system.switch_cpus0.num_vec_register_reads            0                       # number of times the vector registers were read
system.switch_cpus0.num_vec_register_writes            0                       # number of times the vector registers were written
system.switch_cpus0.op_class::No_OpClass        48847      1.95%      1.95% # Class of executed instruction
system.switch_cpus0.op_class::IntAlu          1896344     75.83%     77.78% # Class of executed instruction
system.switch_cpus0.op_class::IntMult           10350      0.41%     78.19% # Class of executed instruction
system.switch_cpus0.op_class::IntDiv             1208      0.05%     78.24% # Class of executed instruction
system.switch_cpus0.op_class::FloatAdd           1032      0.04%     78.28% # Class of executed instruction
system.switch_cpus0.op_class::FloatCmp              0      0.00%     78.28% # Class of executed instruction
system.switch_cpus0.op_class::FloatCvt              0      0.00%     78.28% # Class of executed instruction
system.switch_cpus0.op_class::FloatMult             0      0.00%     78.28% # Class of executed instruction
system.switch_cpus0.op_class::FloatMultAcc            0      0.00%     78.28% # Class of executed instruction
system.switch_cpus0.op_class::FloatDiv              0      0.00%     78.28% # Class of executed instruction
system.switch_cpus0.op_class::FloatMisc             0      0.00%     78.28% # Class of executed instruction
system.switch_cpus0.op_class::FloatSqrt             0      0.00%     78.28% # Class of executed instruction
system.switch_cpus0.op_class::SimdAdd           18316      0.73%     79.02% # Class of executed instruction
system.switch_cpus0.op_class::SimdAddAcc            0      0.00%     79.02% # Class of executed instruction
system.switch_cpus0.op_class::SimdAlu           96603      3.86%     82.88% # Class of executed instruction
system.switch_cpus0.op_class::SimdCmp               6      0.00%     82.88% # Class of executed instruction
system.switch_cpus0.op_class::SimdCvt           64674      2.59%     85.47% # Class of executed instruction
system.switch_cpus0.op_class::SimdMisc          46423      1.86%     87.32% # Class of executed instruction
system.switch_cpus0.op_class::SimdMult              0      0.00%     87.32% # Class of executed instruction
system.switch_cpus0.op_class::SimdMultAcc            0      0.00%     87.32% # Class of executed instruction
system.switch_cpus0.op_class::SimdShift          9872      0.39%     87.72% # Class of executed instruction
system.switch_cpus0.op_class::SimdShiftAcc            0      0.00%     87.72% # Class of executed instruction
system.switch_cpus0.op_class::SimdDiv               0      0.00%     87.72% # Class of executed instruction
system.switch_cpus0.op_class::SimdSqrt              0      0.00%     87.72% # Class of executed instruction
system.switch_cpus0.op_class::SimdFloatAdd            0      0.00%     87.72% # Class of executed instruction
system.switch_cpus0.op_class::SimdFloatAlu            0      0.00%     87.72% # Class of executed instruction
system.switch_cpus0.op_class::SimdFloatCmp            0      0.00%     87.72% # Class of executed instruction
system.switch_cpus0.op_class::SimdFloatCvt           18      0.00%     87.72% # Class of executed instruction
system.switch_cpus0.op_class::SimdFloatDiv            0      0.00%     87.72% # Class of executed instruction
system.switch_cpus0.op_class::SimdFloatMisc            0      0.00%     87.72% # Class of executed instruction
system.switch_cpus0.op_class::SimdFloatMult            0      0.00%     87.72% # Class of executed instruction
system.switch_cpus0.op_class::SimdFloatMultAcc            0      0.00%     87.72% # Class of executed instruction
system.switch_cpus0.op_class::SimdFloatSqrt            0      0.00%     87.72% # Class of executed instruction
system.switch_cpus0.op_class::SimdReduceAdd            0      0.00%     87.72% # Class of executed instruction
system.switch_cpus0.op_class::SimdReduceAlu            0      0.00%     87.72% # Class of executed instruction
system.switch_cpus0.op_class::SimdReduceCmp            0      0.00%     87.72% # Class of executed instruction
system.switch_cpus0.op_class::SimdFloatReduceAdd            0      0.00%     87.72% # Class of executed instruction
system.switch_cpus0.op_class::SimdFloatReduceCmp            0      0.00%     87.72% # Class of executed instruction
system.switch_cpus0.op_class::SimdAes               0      0.00%     87.72% # Class of executed instruction
system.switch_cpus0.op_class::SimdAesMix            0      0.00%     87.72% # Class of executed instruction
system.switch_cpus0.op_class::SimdSha1Hash            0      0.00%     87.72% # Class of executed instruction
system.switch_cpus0.op_class::SimdSha1Hash2            0      0.00%     87.72% # Class of executed instruction
system.switch_cpus0.op_class::SimdSha256Hash            0      0.00%     87.72% # Class of executed instruction
system.switch_cpus0.op_class::SimdSha256Hash2            0      0.00%     87.72% # Class of executed instruction
system.switch_cpus0.op_class::SimdShaSigma2            0      0.00%     87.72% # Class of executed instruction
system.switch_cpus0.op_class::SimdShaSigma3            0      0.00%     87.72% # Class of executed instruction
system.switch_cpus0.op_class::SimdPredAlu            0      0.00%     87.72% # Class of executed instruction
system.switch_cpus0.op_class::MemRead          202379      8.09%     95.81% # Class of executed instruction
system.switch_cpus0.op_class::MemWrite          38745      1.55%     97.36% # Class of executed instruction
system.switch_cpus0.op_class::FloatMemRead        65526      2.62%     99.98% # Class of executed instruction
system.switch_cpus0.op_class::FloatMemWrite          516      0.02%    100.00% # Class of executed instruction
system.switch_cpus0.op_class::IprAccess             0      0.00%    100.00% # Class of executed instruction
system.switch_cpus0.op_class::InstPrefetch            0      0.00%    100.00% # Class of executed instruction
system.switch_cpus0.op_class::total           2500859                       # Class of executed instruction
system.switch_cpus1.Branches                   193521                       # Number of branches fetched
system.switch_cpus1.committedInsts             861107                       # Number of instructions committed
system.switch_cpus1.committedOps              1742215                       # Number of ops (including micro ops) committed
system.switch_cpus1.dtb.rdAccesses             251545                       # TLB accesses on read requests
system.switch_cpus1.dtb.rdMisses                   40                       # TLB misses on read requests
system.switch_cpus1.dtb.wrAccesses             183760                       # TLB accesses on write requests
system.switch_cpus1.dtb.wrMisses                    3                       # TLB misses on write requests
system.switch_cpus1.idle_fraction            0.000000                       # Percentage of idle cycles
system.switch_cpus1.itb.rdAccesses                  0                       # TLB accesses on read requests
system.switch_cpus1.itb.rdMisses                    0                       # TLB misses on read requests
system.switch_cpus1.itb.wrAccesses            1091816                       # TLB accesses on write requests
system.switch_cpus1.itb.wrMisses                   27                       # TLB misses on write requests
system.switch_cpus1.not_idle_fraction        1.000000                       # Percentage of non-idle cycles
system.switch_cpus1.numCycles                 5048533                       # number of cpu cycles simulated
system.switch_cpus1.numWorkItemsCompleted            0                       # number of work items this cpu completed
system.switch_cpus1.numWorkItemsStarted             0                       # number of work items this cpu started
system.switch_cpus1.num_busy_cycles      5048532.512667                       # Number of busy cycles
system.switch_cpus1.num_cc_register_reads       719903                       # number of times the CC registers were read
system.switch_cpus1.num_cc_register_writes       386453                       # number of times the CC registers were written
system.switch_cpus1.num_conditional_control_insts        88131                       # number of instructions that are conditional controls
system.switch_cpus1.num_fp_alu_accesses         14229                       # Number of float alu accesses
system.switch_cpus1.num_fp_insts                14229                       # number of float instructions
system.switch_cpus1.num_fp_register_reads        23885                       # number of times the floating registers were read
system.switch_cpus1.num_fp_register_writes        12515                       # number of times the floating registers were written
system.switch_cpus1.num_func_calls              91310                       # number of times a function call or return occured
system.switch_cpus1.num_idle_cycles          0.487333                       # Number of idle cycles
system.switch_cpus1.num_int_alu_accesses      1724311                       # Number of integer alu accesses
system.switch_cpus1.num_int_insts             1724311                       # number of integer instructions
system.switch_cpus1.num_int_register_reads      3655791                       # number of times the integer registers were read
system.switch_cpus1.num_int_register_writes      1352404                       # number of times the integer registers were written
system.switch_cpus1.num_load_insts             251543                       # Number of load instructions
system.switch_cpus1.num_mem_refs               435301                       # number of memory refs
system.switch_cpus1.num_store_insts            183758                       # Number of store instructions
system.switch_cpus1.num_vec_alu_accesses            0                       # Number of vector alu accesses
system.switch_cpus1.num_vec_insts                   0                       # number of vector instructions
system.switch_cpus1.num_vec_register_reads            0                       # number of times the vector registers were read
system.switch_cpus1.num_vec_register_writes            0                       # number of times the vector registers were written
system.switch_cpus1.op_class::No_OpClass         5760      0.33%      0.33% # Class of executed instruction
system.switch_cpus1.op_class::IntAlu          1288121     73.94%     74.27% # Class of executed instruction
system.switch_cpus1.op_class::IntMult             803      0.05%     74.31% # Class of executed instruction
system.switch_cpus1.op_class::IntDiv             1988      0.11%     74.43% # Class of executed instruction
system.switch_cpus1.op_class::FloatAdd            567      0.03%     74.46% # Class of executed instruction
system.switch_cpus1.op_class::FloatCmp              0      0.00%     74.46% # Class of executed instruction
system.switch_cpus1.op_class::FloatCvt              0      0.00%     74.46% # Class of executed instruction
system.switch_cpus1.op_class::FloatMult             0      0.00%     74.46% # Class of executed instruction
system.switch_cpus1.op_class::FloatMultAcc            0      0.00%     74.46% # Class of executed instruction
system.switch_cpus1.op_class::FloatDiv              0      0.00%     74.46% # Class of executed instruction
system.switch_cpus1.op_class::FloatMisc             0      0.00%     74.46% # Class of executed instruction
system.switch_cpus1.op_class::FloatSqrt             0      0.00%     74.46% # Class of executed instruction
system.switch_cpus1.op_class::SimdAdd               0      0.00%     74.46% # Class of executed instruction
system.switch_cpus1.op_class::SimdAddAcc            0      0.00%     74.46% # Class of executed instruction
system.switch_cpus1.op_class::SimdAlu            2276      0.13%     74.59% # Class of executed instruction
system.switch_cpus1.op_class::SimdCmp               0      0.00%     74.59% # Class of executed instruction
system.switch_cpus1.op_class::SimdCvt            2282      0.13%     74.72% # Class of executed instruction
system.switch_cpus1.op_class::SimdMisc           5117      0.29%     75.01% # Class of executed instruction
system.switch_cpus1.op_class::SimdMult              0      0.00%     75.01% # Class of executed instruction
system.switch_cpus1.op_class::SimdMultAcc            0      0.00%     75.01% # Class of executed instruction
system.switch_cpus1.op_class::SimdShift             0      0.00%     75.01% # Class of executed instruction
system.switch_cpus1.op_class::SimdShiftAcc            0      0.00%     75.01% # Class of executed instruction
system.switch_cpus1.op_class::SimdDiv               0      0.00%     75.01% # Class of executed instruction
system.switch_cpus1.op_class::SimdSqrt              0      0.00%     75.01% # Class of executed instruction
system.switch_cpus1.op_class::SimdFloatAdd            0      0.00%     75.01% # Class of executed instruction
system.switch_cpus1.op_class::SimdFloatAlu            0      0.00%     75.01% # Class of executed instruction
system.switch_cpus1.op_class::SimdFloatCmp            0      0.00%     75.01% # Class of executed instruction
system.switch_cpus1.op_class::SimdFloatCvt            0      0.00%     75.01% # Class of executed instruction
system.switch_cpus1.op_class::SimdFloatDiv            0      0.00%     75.01% # Class of executed instruction
system.switch_cpus1.op_class::SimdFloatMisc            0      0.00%     75.01% # Class of executed instruction
system.switch_cpus1.op_class::SimdFloatMult            0      0.00%     75.01% # Class of executed instruction
system.switch_cpus1.op_class::SimdFloatMultAcc            0      0.00%     75.01% # Class of executed instruction
system.switch_cpus1.op_class::SimdFloatSqrt            0      0.00%     75.01% # Class of executed instruction
system.switch_cpus1.op_class::SimdReduceAdd            0      0.00%     75.01% # Class of executed instruction
system.switch_cpus1.op_class::SimdReduceAlu            0      0.00%     75.01% # Class of executed instruction
system.switch_cpus1.op_class::SimdReduceCmp            0      0.00%     75.01% # Class of executed instruction
system.switch_cpus1.op_class::SimdFloatReduceAdd            0      0.00%     75.01% # Class of executed instruction
system.switch_cpus1.op_class::SimdFloatReduceCmp            0      0.00%     75.01% # Class of executed instruction
system.switch_cpus1.op_class::SimdAes               0      0.00%     75.01% # Class of executed instruction
system.switch_cpus1.op_class::SimdAesMix            0      0.00%     75.01% # Class of executed instruction
system.switch_cpus1.op_class::SimdSha1Hash            0      0.00%     75.01% # Class of executed instruction
system.switch_cpus1.op_class::SimdSha1Hash2            0      0.00%     75.01% # Class of executed instruction
system.switch_cpus1.op_class::SimdSha256Hash            0      0.00%     75.01% # Class of executed instruction
system.switch_cpus1.op_class::SimdSha256Hash2            0      0.00%     75.01% # Class of executed instruction
system.switch_cpus1.op_class::SimdShaSigma2            0      0.00%     75.01% # Class of executed instruction
system.switch_cpus1.op_class::SimdShaSigma3            0      0.00%     75.01% # Class of executed instruction
system.switch_cpus1.op_class::SimdPredAlu            0      0.00%     75.01% # Class of executed instruction
system.switch_cpus1.op_class::MemRead          249823     14.34%     89.35% # Class of executed instruction
system.switch_cpus1.op_class::MemWrite         183192     10.51%     99.87% # Class of executed instruction
system.switch_cpus1.op_class::FloatMemRead         1720      0.10%     99.97% # Class of executed instruction
system.switch_cpus1.op_class::FloatMemWrite          566      0.03%    100.00% # Class of executed instruction
system.switch_cpus1.op_class::IprAccess             0      0.00%    100.00% # Class of executed instruction
system.switch_cpus1.op_class::InstPrefetch            0      0.00%    100.00% # Class of executed instruction
system.switch_cpus1.op_class::total           1742215                       # Class of executed instruction
system.switch_cpus_10.branchPred.BTBCorrect            0                       # Number of correct BTB predictions (this stat may not work properly.
system.switch_cpus_10.branchPred.BTBHitPct     0.000000                       # BTB Hit Percentage
system.switch_cpus_10.branchPred.BTBHits            0                       # Number of BTB hits
system.switch_cpus_10.branchPred.BTBLookups     21188618                       # Number of BTB lookups
system.switch_cpus_10.branchPred.RASInCorrect           12                       # Number of incorrect RAS predictions.
system.switch_cpus_10.branchPred.condIncorrect      1456689                       # Number of conditional branches incorrect
system.switch_cpus_10.branchPred.condPredicted     23027902                       # Number of conditional branches predicted
system.switch_cpus_10.branchPred.indirectHits      8071773                       # Number of indirect target hits.
system.switch_cpus_10.branchPred.indirectLookups     21188618                       # Number of indirect predictor lookups.
system.switch_cpus_10.branchPred.indirectMisses     13116845                       # Number of indirect misses.
system.switch_cpus_10.branchPred.lookups     24748074                       # Number of BP lookups
system.switch_cpus_10.branchPred.usedRAS       753300                       # Number of times the RAS was used to get a target.
system.switch_cpus_10.branchPredindirectMispredicted      1025830                       # Number of mispredicted indirect branches.
system.switch_cpus_10.cc_regfile_reads      100006259                       # number of cc regfile reads
system.switch_cpus_10.cc_regfile_writes      41582426                       # number of cc regfile writes
system.switch_cpus_10.commit.amos                   0                       # Number of atomic instructions committed
system.switch_cpus_10.commit.branchMispredicts      1456689                       # The number of times a branch was mispredicted
system.switch_cpus_10.commit.branches        14584540                       # Number of branches committed
system.switch_cpus_10.commit.bw_lim_events      6509486                       # number cycles where commit BW limit reached
system.switch_cpus_10.commit.commitNonSpecStalls          189                       # The number of times commit has been forced to stall to communicate backwards
system.switch_cpus_10.commit.commitSquashedInsts     50378621                       # The number of squashed insts skipped by commit
system.switch_cpus_10.commit.committedInsts     50000002                       # Number of instructions committed
system.switch_cpus_10.commit.committedOps    113620108                       # Number of ops (including micro ops) committed
system.switch_cpus_10.commit.committed_per_cycle::samples     49665821                       # Number of insts commited each cycle
system.switch_cpus_10.commit.committed_per_cycle::mean     2.287692                       # Number of insts commited each cycle
system.switch_cpus_10.commit.committed_per_cycle::stdev     2.657370                       # Number of insts commited each cycle
system.switch_cpus_10.commit.committed_per_cycle::underflows            0      0.00%      0.00% # Number of insts commited each cycle
system.switch_cpus_10.commit.committed_per_cycle::0     17140386     34.51%     34.51% # Number of insts commited each cycle
system.switch_cpus_10.commit.committed_per_cycle::1      8388405     16.89%     51.40% # Number of insts commited each cycle
system.switch_cpus_10.commit.committed_per_cycle::2      7447994     15.00%     66.40% # Number of insts commited each cycle
system.switch_cpus_10.commit.committed_per_cycle::3      5751054     11.58%     77.98% # Number of insts commited each cycle
system.switch_cpus_10.commit.committed_per_cycle::4      2586221      5.21%     83.18% # Number of insts commited each cycle
system.switch_cpus_10.commit.committed_per_cycle::5       747300      1.50%     84.69% # Number of insts commited each cycle
system.switch_cpus_10.commit.committed_per_cycle::6       739544      1.49%     86.18% # Number of insts commited each cycle
system.switch_cpus_10.commit.committed_per_cycle::7       355431      0.72%     86.89% # Number of insts commited each cycle
system.switch_cpus_10.commit.committed_per_cycle::8      6509486     13.11%    100.00% # Number of insts commited each cycle
system.switch_cpus_10.commit.committed_per_cycle::overflows            0      0.00%    100.00% # Number of insts commited each cycle
system.switch_cpus_10.commit.committed_per_cycle::min_value            0                       # Number of insts commited each cycle
system.switch_cpus_10.commit.committed_per_cycle::max_value            8                       # Number of insts commited each cycle
system.switch_cpus_10.commit.committed_per_cycle::total     49665821                       # Number of insts commited each cycle
system.switch_cpus_10.commit.fp_insts         7862672                       # Number of committed floating point instructions.
system.switch_cpus_10.commit.function_calls       592693                       # Number of function calls committed.
system.switch_cpus_10.commit.int_insts      107426394                       # Number of committed integer instructions.
system.switch_cpus_10.commit.loads           10493822                       # Number of loads committed
system.switch_cpus_10.commit.membars                0                       # Number of memory barriers committed
system.switch_cpus_10.commit.op_class_0::No_OpClass      1251941      1.10%      1.10% # Class of committed instruction
system.switch_cpus_10.commit.op_class_0::IntAlu     92928521     81.79%     82.89% # Class of committed instruction
system.switch_cpus_10.commit.op_class_0::IntMult       476584      0.42%     83.31% # Class of committed instruction
system.switch_cpus_10.commit.op_class_0::IntDiv        16050      0.01%     83.32% # Class of committed instruction
system.switch_cpus_10.commit.op_class_0::FloatAdd        27353      0.02%     83.35% # Class of committed instruction
system.switch_cpus_10.commit.op_class_0::FloatCmp            0      0.00%     83.35% # Class of committed instruction
system.switch_cpus_10.commit.op_class_0::FloatCvt            0      0.00%     83.35% # Class of committed instruction
system.switch_cpus_10.commit.op_class_0::FloatMult            0      0.00%     83.35% # Class of committed instruction
system.switch_cpus_10.commit.op_class_0::FloatMultAcc            0      0.00%     83.35% # Class of committed instruction
system.switch_cpus_10.commit.op_class_0::FloatDiv            0      0.00%     83.35% # Class of committed instruction
system.switch_cpus_10.commit.op_class_0::FloatMisc            0      0.00%     83.35% # Class of committed instruction
system.switch_cpus_10.commit.op_class_0::FloatSqrt            0      0.00%     83.35% # Class of committed instruction
system.switch_cpus_10.commit.op_class_0::SimdAdd       476694      0.42%     83.77% # Class of committed instruction
system.switch_cpus_10.commit.op_class_0::SimdAddAcc            0      0.00%     83.77% # Class of committed instruction
system.switch_cpus_10.commit.op_class_0::SimdAlu      2413005      2.12%     85.89% # Class of committed instruction
system.switch_cpus_10.commit.op_class_0::SimdCmp         5664      0.00%     85.90% # Class of committed instruction
system.switch_cpus_10.commit.op_class_0::SimdCvt      1693068      1.49%     87.39% # Class of committed instruction
system.switch_cpus_10.commit.op_class_0::SimdMisc      1217052      1.07%     88.46% # Class of committed instruction
system.switch_cpus_10.commit.op_class_0::SimdMult            0      0.00%     88.46% # Class of committed instruction
system.switch_cpus_10.commit.op_class_0::SimdMultAcc            0      0.00%     88.46% # Class of committed instruction
system.switch_cpus_10.commit.op_class_0::SimdShift       264977      0.23%     88.69% # Class of committed instruction
system.switch_cpus_10.commit.op_class_0::SimdShiftAcc            0      0.00%     88.69% # Class of committed instruction
system.switch_cpus_10.commit.op_class_0::SimdDiv            0      0.00%     88.69% # Class of committed instruction
system.switch_cpus_10.commit.op_class_0::SimdSqrt            0      0.00%     88.69% # Class of committed instruction
system.switch_cpus_10.commit.op_class_0::SimdFloatAdd            0      0.00%     88.69% # Class of committed instruction
system.switch_cpus_10.commit.op_class_0::SimdFloatAlu            0      0.00%     88.69% # Class of committed instruction
system.switch_cpus_10.commit.op_class_0::SimdFloatCmp            0      0.00%     88.69% # Class of committed instruction
system.switch_cpus_10.commit.op_class_0::SimdFloatCvt           88      0.00%     88.69% # Class of committed instruction
system.switch_cpus_10.commit.op_class_0::SimdFloatDiv            0      0.00%     88.69% # Class of committed instruction
system.switch_cpus_10.commit.op_class_0::SimdFloatMisc            0      0.00%     88.69% # Class of committed instruction
system.switch_cpus_10.commit.op_class_0::SimdFloatMult            0      0.00%     88.69% # Class of committed instruction
system.switch_cpus_10.commit.op_class_0::SimdFloatMultAcc            0      0.00%     88.69% # Class of committed instruction
system.switch_cpus_10.commit.op_class_0::SimdFloatSqrt            0      0.00%     88.69% # Class of committed instruction
system.switch_cpus_10.commit.op_class_0::SimdReduceAdd            0      0.00%     88.69% # Class of committed instruction
system.switch_cpus_10.commit.op_class_0::SimdReduceAlu            0      0.00%     88.69% # Class of committed instruction
system.switch_cpus_10.commit.op_class_0::SimdReduceCmp            0      0.00%     88.69% # Class of committed instruction
system.switch_cpus_10.commit.op_class_0::SimdFloatReduceAdd            0      0.00%     88.69% # Class of committed instruction
system.switch_cpus_10.commit.op_class_0::SimdFloatReduceCmp            0      0.00%     88.69% # Class of committed instruction
system.switch_cpus_10.commit.op_class_0::SimdAes            0      0.00%     88.69% # Class of committed instruction
system.switch_cpus_10.commit.op_class_0::SimdAesMix            0      0.00%     88.69% # Class of committed instruction
system.switch_cpus_10.commit.op_class_0::SimdSha1Hash            0      0.00%     88.69% # Class of committed instruction
system.switch_cpus_10.commit.op_class_0::SimdSha1Hash2            0      0.00%     88.69% # Class of committed instruction
system.switch_cpus_10.commit.op_class_0::SimdSha256Hash            0      0.00%     88.69% # Class of committed instruction
system.switch_cpus_10.commit.op_class_0::SimdSha256Hash2            0      0.00%     88.69% # Class of committed instruction
system.switch_cpus_10.commit.op_class_0::SimdShaSigma2            0      0.00%     88.69% # Class of committed instruction
system.switch_cpus_10.commit.op_class_0::SimdShaSigma3            0      0.00%     88.69% # Class of committed instruction
system.switch_cpus_10.commit.op_class_0::SimdPredAlu            0      0.00%     88.69% # Class of committed instruction
system.switch_cpus_10.commit.op_class_0::MemRead      8769465      7.72%     96.41% # Class of committed instruction
system.switch_cpus_10.commit.op_class_0::MemWrite      2326304      2.05%     98.46% # Class of committed instruction
system.switch_cpus_10.commit.op_class_0::FloatMemRead      1724357      1.52%     99.97% # Class of committed instruction
system.switch_cpus_10.commit.op_class_0::FloatMemWrite        28985      0.03%    100.00% # Class of committed instruction
system.switch_cpus_10.commit.op_class_0::IprAccess            0      0.00%    100.00% # Class of committed instruction
system.switch_cpus_10.commit.op_class_0::InstPrefetch            0      0.00%    100.00% # Class of committed instruction
system.switch_cpus_10.commit.op_class_0::total    113620108                       # Class of committed instruction
system.switch_cpus_10.commit.refs            12849111                       # Number of memory references committed
system.switch_cpus_10.commit.swp_count              0                       # Number of s/w prefetches committed
system.switch_cpus_10.commit.vec_insts              0                       # Number of committed Vector instructions.
system.switch_cpus_10.committedInsts         50000002                       # Number of Instructions Simulated
system.switch_cpus_10.committedOps          113620108                       # Number of Ops (including micro ops) Simulated
system.switch_cpus_10.cpi                    1.142171                       # CPI: Cycles Per Instruction
system.switch_cpus_10.cpi_total              1.142171                       # CPI: Total CPI of All Threads
system.switch_cpus_10.decode.BlockedCycles      9540099                       # Number of cycles decode is blocked
system.switch_cpus_10.decode.DecodedInsts    182736996                       # Number of instructions handled by decode
system.switch_cpus_10.decode.IdleCycles      18691110                       # Number of cycles decode is idle
system.switch_cpus_10.decode.RunCycles       25577612                       # Number of cycles decode is running
system.switch_cpus_10.decode.SquashCycles      1461969                       # Number of cycles decode is squashing
system.switch_cpus_10.decode.UnblockCycles      1806071                       # Number of cycles decode is unblocking
system.switch_cpus_10.dtb.rdAccesses         14010345                       # TLB accesses on read requests
system.switch_cpus_10.dtb.rdMisses               1958                       # TLB misses on read requests
system.switch_cpus_10.dtb.wrAccesses          3154491                       # TLB accesses on write requests
system.switch_cpus_10.dtb.wrMisses                201                       # TLB misses on write requests
system.switch_cpus_10.fetch.Branches         24748074                       # Number of branches that fetch encountered
system.switch_cpus_10.fetch.CacheLines       10226320                       # Number of cache lines fetched
system.switch_cpus_10.fetch.Cycles           34826918                       # Number of cycles fetch has run and was not squashing or blocked
system.switch_cpus_10.fetch.IcacheSquashes       525880                       # Number of outstanding Icache misses that were squashed
system.switch_cpus_10.fetch.IcacheWaitRetryStallCycles          158                       # Number of stall cycles due to full MSHR
system.switch_cpus_10.fetch.Insts            84807485                       # Number of instructions fetch has processed
system.switch_cpus_10.fetch.MiscStallCycles          622                       # Number of cycles fetch has spent waiting on interrupts, or bad addresses, or out of MSHRs
system.switch_cpus_10.fetch.SquashCycles      2923938                       # Number of cycles fetch has spent squashing
system.switch_cpus_10.fetch.branchRate       0.433352                       # Number of branch fetches per cycle
system.switch_cpus_10.fetch.icacheStallCycles     20787205                       # Number of cycles fetch is stalled on an Icache miss
system.switch_cpus_10.fetch.predictedBranches      8825073                       # Number of branches that fetch has predicted taken
system.switch_cpus_10.fetch.rate             1.485023                       # Number of inst fetches per cycle
system.switch_cpus_10.fetch.rateDist::samples     57076872                       # Number of instructions fetched each cycle (Total)
system.switch_cpus_10.fetch.rateDist::mean     3.373136                       # Number of instructions fetched each cycle (Total)
system.switch_cpus_10.fetch.rateDist::stdev     3.623753                       # Number of instructions fetched each cycle (Total)
system.switch_cpus_10.fetch.rateDist::underflows            0      0.00%      0.00% # Number of instructions fetched each cycle (Total)
system.switch_cpus_10.fetch.rateDist::0      26402003     46.26%     46.26% # Number of instructions fetched each cycle (Total)
system.switch_cpus_10.fetch.rateDist::1       2944129      5.16%     51.42% # Number of instructions fetched each cycle (Total)
system.switch_cpus_10.fetch.rateDist::2        817827      1.43%     52.85% # Number of instructions fetched each cycle (Total)
system.switch_cpus_10.fetch.rateDist::3       2287815      4.01%     56.86% # Number of instructions fetched each cycle (Total)
system.switch_cpus_10.fetch.rateDist::4       1959682      3.43%     60.29% # Number of instructions fetched each cycle (Total)
system.switch_cpus_10.fetch.rateDist::5       1486580      2.60%     62.89% # Number of instructions fetched each cycle (Total)
system.switch_cpus_10.fetch.rateDist::6       1212480      2.12%     65.02% # Number of instructions fetched each cycle (Total)
system.switch_cpus_10.fetch.rateDist::7       1192543      2.09%     67.11% # Number of instructions fetched each cycle (Total)
system.switch_cpus_10.fetch.rateDist::8      18773813     32.89%    100.00% # Number of instructions fetched each cycle (Total)
system.switch_cpus_10.fetch.rateDist::overflows            0      0.00%    100.00% # Number of instructions fetched each cycle (Total)
system.switch_cpus_10.fetch.rateDist::min_value            0                       # Number of instructions fetched each cycle (Total)
system.switch_cpus_10.fetch.rateDist::max_value            8                       # Number of instructions fetched each cycle (Total)
system.switch_cpus_10.fetch.rateDist::total     57076872                       # Number of instructions fetched each cycle (Total)
system.switch_cpus_10.fp_regfile_reads       18675544                       # number of floating regfile reads
system.switch_cpus_10.fp_regfile_writes      10243778                       # number of floating regfile writes
system.switch_cpus_10.idleCycles                31667                       # Total number of cycles that the CPU has spent unscheduled due to idling
system.switch_cpus_10.iew.branchMispredicts      1793196                       # Number of branch mispredicts detected at execute
system.switch_cpus_10.iew.exec_branches      16454813                       # Number of branches executed
system.switch_cpus_10.iew.exec_nop                  0                       # number of nop insts executed
system.switch_cpus_10.iew.exec_rate          2.494611                       # Inst execution rate
system.switch_cpus_10.iew.exec_refs          17089905                       # number of memory reference insts executed
system.switch_cpus_10.iew.exec_stores         3154393                       # Number of stores executed
system.switch_cpus_10.iew.exec_swp                  0                       # number of swp insts executed
system.switch_cpus_10.iew.iewBlockCycles      6037117                       # Number of cycles IEW is blocking
system.switch_cpus_10.iew.iewDispLoadInsts     15879657                       # Number of dispatched load instructions
system.switch_cpus_10.iew.iewDispNonSpecInsts            8                       # Number of dispatched non-speculative instructions
system.switch_cpus_10.iew.iewDispSquashedInsts       420972                       # Number of squashed instructions skipped by dispatch
system.switch_cpus_10.iew.iewDispStoreInsts      3652274                       # Number of dispatched store instructions
system.switch_cpus_10.iew.iewDispatchedInsts    164164609                       # Number of instructions dispatched to IQ
system.switch_cpus_10.iew.iewExecLoadInsts     13935512                       # Number of load instructions executed
system.switch_cpus_10.iew.iewExecSquashedInsts      2878078                       # Number of squashed instructions skipped in execute
system.switch_cpus_10.iew.iewExecutedInsts    142463579                       # Number of executed instructions
system.switch_cpus_10.iew.iewIQFullEvents         1889                       # Number of times the IQ has become full, causing a stall
system.switch_cpus_10.iew.iewIdleCycles             0                       # Number of cycles IEW is idle
system.switch_cpus_10.iew.iewLSQFullEvents       125016                       # Number of times the LSQ has become full, causing a stall
system.switch_cpus_10.iew.iewSquashCycles      1461969                       # Number of cycles IEW is squashing
system.switch_cpus_10.iew.iewUnblockCycles       127017                       # Number of cycles IEW is unblocking
system.switch_cpus_10.iew.lsq.thread0.blockedLoads            0                       # Number of blocked loads due to partial load-store forwarding
system.switch_cpus_10.iew.lsq.thread0.cacheBlocked          831                       # Number of times an access to memory failed due to the cache being blocked
system.switch_cpus_10.iew.lsq.thread0.forwLoads       234351                       # Number of loads that had data forwarded from stores
system.switch_cpus_10.iew.lsq.thread0.ignoredResponses         3637                       # Number of memory responses ignored because the instruction is squashed
system.switch_cpus_10.iew.lsq.thread0.invAddrLoads            0                       # Number of loads ignored due to an invalid address
system.switch_cpus_10.iew.lsq.thread0.invAddrSwpfs            0                       # Number of software prefetches ignored due to an invalid address
system.switch_cpus_10.iew.lsq.thread0.memOrderViolation          197                       # Number of memory ordering violations
system.switch_cpus_10.iew.lsq.thread0.rescheduledLoads          324                       # Number of loads that were rescheduled
system.switch_cpus_10.iew.lsq.thread0.squashedLoads      5385831                       # Number of loads squashed
system.switch_cpus_10.iew.lsq.thread0.squashedStores      1296984                       # Number of stores squashed
system.switch_cpus_10.iew.memOrderViolationEvents          197                       # Number of memory order violations
system.switch_cpus_10.iew.predictedNotTakenIncorrect      1458379                       # Number of branches that were predicted not taken incorrectly
system.switch_cpus_10.iew.predictedTakenIncorrect       334817                       # Number of branches that were predicted taken incorrectly
system.switch_cpus_10.iew.wb_consumers      189872069                       # num instructions consuming a value
system.switch_cpus_10.iew.wb_count          140703320                       # cumulative count of insts written-back
system.switch_cpus_10.iew.wb_fanout          0.556665                       # average fanout of values written-back
system.switch_cpus_10.iew.wb_producers      105695056                       # num instructions producing a value
system.switch_cpus_10.iew.wb_rate            2.463788                       # insts written-back per cycle
system.switch_cpus_10.iew.wb_sent           141059963                       # cumulative count of insts sent to commit
system.switch_cpus_10.int_regfile_reads     183234975                       # number of integer regfile reads
system.switch_cpus_10.int_regfile_writes    110293719                       # number of integer regfile writes
system.switch_cpus_10.ipc                    0.875526                       # IPC: Instructions Per Cycle
system.switch_cpus_10.ipc_total              0.875526                       # IPC: Total IPC of All Threads
system.switch_cpus_10.iq.FU_type_0::No_OpClass      2712428      1.87%      1.87% # Type of FU issued
system.switch_cpus_10.iq.FU_type_0::IntAlu    115260860     79.30%     81.17% # Type of FU issued
system.switch_cpus_10.iq.FU_type_0::IntMult       571573      0.39%     81.56% # Type of FU issued
system.switch_cpus_10.iq.FU_type_0::IntDiv        19053      0.01%     81.58% # Type of FU issued
system.switch_cpus_10.iq.FU_type_0::FloatAdd       561744      0.39%     81.96% # Type of FU issued
system.switch_cpus_10.iq.FU_type_0::FloatCmp            0      0.00%     81.96% # Type of FU issued
system.switch_cpus_10.iq.FU_type_0::FloatCvt            0      0.00%     81.96% # Type of FU issued
system.switch_cpus_10.iq.FU_type_0::FloatMult            0      0.00%     81.96% # Type of FU issued
system.switch_cpus_10.iq.FU_type_0::FloatMultAcc            0      0.00%     81.96% # Type of FU issued
system.switch_cpus_10.iq.FU_type_0::FloatDiv            0      0.00%     81.96% # Type of FU issued
system.switch_cpus_10.iq.FU_type_0::FloatMisc            0      0.00%     81.96% # Type of FU issued
system.switch_cpus_10.iq.FU_type_0::FloatSqrt            0      0.00%     81.96% # Type of FU issued
system.switch_cpus_10.iq.FU_type_0::SimdAdd       732611      0.50%     82.47% # Type of FU issued
system.switch_cpus_10.iq.FU_type_0::SimdAddAcc            0      0.00%     82.47% # Type of FU issued
system.switch_cpus_10.iq.FU_type_0::SimdAlu      3201540      2.20%     84.67% # Type of FU issued
system.switch_cpus_10.iq.FU_type_0::SimdCmp        12168      0.01%     84.68% # Type of FU issued
system.switch_cpus_10.iq.FU_type_0::SimdCvt      2410501      1.66%     86.34% # Type of FU issued
system.switch_cpus_10.iq.FU_type_0::SimdMisc      1439056      0.99%     87.33% # Type of FU issued
system.switch_cpus_10.iq.FU_type_0::SimdMult            0      0.00%     87.33% # Type of FU issued
system.switch_cpus_10.iq.FU_type_0::SimdMultAcc            0      0.00%     87.33% # Type of FU issued
system.switch_cpus_10.iq.FU_type_0::SimdShift       656172      0.45%     87.78% # Type of FU issued
system.switch_cpus_10.iq.FU_type_0::SimdShiftAcc            0      0.00%     87.78% # Type of FU issued
system.switch_cpus_10.iq.FU_type_0::SimdDiv            0      0.00%     87.78% # Type of FU issued
system.switch_cpus_10.iq.FU_type_0::SimdSqrt            0      0.00%     87.78% # Type of FU issued
system.switch_cpus_10.iq.FU_type_0::SimdFloatAdd            0      0.00%     87.78% # Type of FU issued
system.switch_cpus_10.iq.FU_type_0::SimdFloatAlu            0      0.00%     87.78% # Type of FU issued
system.switch_cpus_10.iq.FU_type_0::SimdFloatCmp            0      0.00%     87.78% # Type of FU issued
system.switch_cpus_10.iq.FU_type_0::SimdFloatCvt          131      0.00%     87.78% # Type of FU issued
system.switch_cpus_10.iq.FU_type_0::SimdFloatDiv            0      0.00%     87.78% # Type of FU issued
system.switch_cpus_10.iq.FU_type_0::SimdFloatMisc            0      0.00%     87.78% # Type of FU issued
system.switch_cpus_10.iq.FU_type_0::SimdFloatMult            0      0.00%     87.78% # Type of FU issued
system.switch_cpus_10.iq.FU_type_0::SimdFloatMultAcc            0      0.00%     87.78% # Type of FU issued
system.switch_cpus_10.iq.FU_type_0::SimdFloatSqrt            0      0.00%     87.78% # Type of FU issued
system.switch_cpus_10.iq.FU_type_0::SimdReduceAdd            0      0.00%     87.78% # Type of FU issued
system.switch_cpus_10.iq.FU_type_0::SimdReduceAlu            0      0.00%     87.78% # Type of FU issued
system.switch_cpus_10.iq.FU_type_0::SimdReduceCmp            0      0.00%     87.78% # Type of FU issued
system.switch_cpus_10.iq.FU_type_0::SimdFloatReduceAdd            0      0.00%     87.78% # Type of FU issued
system.switch_cpus_10.iq.FU_type_0::SimdFloatReduceCmp            0      0.00%     87.78% # Type of FU issued
system.switch_cpus_10.iq.FU_type_0::SimdAes            0      0.00%     87.78% # Type of FU issued
system.switch_cpus_10.iq.FU_type_0::SimdAesMix            0      0.00%     87.78% # Type of FU issued
system.switch_cpus_10.iq.FU_type_0::SimdSha1Hash            0      0.00%     87.78% # Type of FU issued
system.switch_cpus_10.iq.FU_type_0::SimdSha1Hash2            0      0.00%     87.78% # Type of FU issued
system.switch_cpus_10.iq.FU_type_0::SimdSha256Hash            0      0.00%     87.78% # Type of FU issued
system.switch_cpus_10.iq.FU_type_0::SimdSha256Hash2            0      0.00%     87.78% # Type of FU issued
system.switch_cpus_10.iq.FU_type_0::SimdShaSigma2            0      0.00%     87.78% # Type of FU issued
system.switch_cpus_10.iq.FU_type_0::SimdShaSigma3            0      0.00%     87.78% # Type of FU issued
system.switch_cpus_10.iq.FU_type_0::SimdPredAlu            0      0.00%     87.78% # Type of FU issued
system.switch_cpus_10.iq.FU_type_0::MemRead     10797676      7.43%     95.21% # Type of FU issued
system.switch_cpus_10.iq.FU_type_0::MemWrite      3183675      2.19%     97.40% # Type of FU issued
system.switch_cpus_10.iq.FU_type_0::FloatMemRead      3672263      2.53%     99.92% # Type of FU issued
system.switch_cpus_10.iq.FU_type_0::FloatMemWrite       110209      0.08%    100.00% # Type of FU issued
system.switch_cpus_10.iq.FU_type_0::IprAccess            0      0.00%    100.00% # Type of FU issued
system.switch_cpus_10.iq.FU_type_0::InstPrefetch            0      0.00%    100.00% # Type of FU issued
system.switch_cpus_10.iq.FU_type_0::total    145341660                       # Type of FU issued
system.switch_cpus_10.iq.fp_alu_accesses     13228056                       # Number of floating point alu accesses
system.switch_cpus_10.iq.fp_inst_queue_reads     26131944                       # Number of floating instruction queue reads
system.switch_cpus_10.iq.fp_inst_queue_wakeup_accesses     11601273                       # Number of floating instruction queue wakeup accesses
system.switch_cpus_10.iq.fp_inst_queue_writes     23332180                       # Number of floating instruction queue writes
system.switch_cpus_10.iq.fu_busy_cnt          2318233                       # FU busy when requested
system.switch_cpus_10.iq.fu_busy_rate        0.015950                       # FU busy rate (busy events/executed inst)
system.switch_cpus_10.iq.fu_full::No_OpClass            0      0.00%      0.00% # attempts to use FU when none available
system.switch_cpus_10.iq.fu_full::IntAlu      1892911     81.65%     81.65% # attempts to use FU when none available
system.switch_cpus_10.iq.fu_full::IntMult            0      0.00%     81.65% # attempts to use FU when none available
system.switch_cpus_10.iq.fu_full::IntDiv            0      0.00%     81.65% # attempts to use FU when none available
system.switch_cpus_10.iq.fu_full::FloatAdd            0      0.00%     81.65% # attempts to use FU when none available
system.switch_cpus_10.iq.fu_full::FloatCmp            0      0.00%     81.65% # attempts to use FU when none available
system.switch_cpus_10.iq.fu_full::FloatCvt            0      0.00%     81.65% # attempts to use FU when none available
system.switch_cpus_10.iq.fu_full::FloatMult            0      0.00%     81.65% # attempts to use FU when none available
system.switch_cpus_10.iq.fu_full::FloatMultAcc            0      0.00%     81.65% # attempts to use FU when none available
system.switch_cpus_10.iq.fu_full::FloatDiv            0      0.00%     81.65% # attempts to use FU when none available
system.switch_cpus_10.iq.fu_full::FloatMisc            0      0.00%     81.65% # attempts to use FU when none available
system.switch_cpus_10.iq.fu_full::FloatSqrt            0      0.00%     81.65% # attempts to use FU when none available
system.switch_cpus_10.iq.fu_full::SimdAdd           67      0.00%     81.66% # attempts to use FU when none available
system.switch_cpus_10.iq.fu_full::SimdAddAcc            0      0.00%     81.66% # attempts to use FU when none available
system.switch_cpus_10.iq.fu_full::SimdAlu       243084     10.49%     92.14% # attempts to use FU when none available
system.switch_cpus_10.iq.fu_full::SimdCmp           19      0.00%     92.14% # attempts to use FU when none available
system.switch_cpus_10.iq.fu_full::SimdCvt         2826      0.12%     92.26% # attempts to use FU when none available
system.switch_cpus_10.iq.fu_full::SimdMisc        48205      2.08%     94.34% # attempts to use FU when none available
system.switch_cpus_10.iq.fu_full::SimdMult            0      0.00%     94.34% # attempts to use FU when none available
system.switch_cpus_10.iq.fu_full::SimdMultAcc            0      0.00%     94.34% # attempts to use FU when none available
system.switch_cpus_10.iq.fu_full::SimdShift          343      0.01%     94.36% # attempts to use FU when none available
system.switch_cpus_10.iq.fu_full::SimdShiftAcc            0      0.00%     94.36% # attempts to use FU when none available
system.switch_cpus_10.iq.fu_full::SimdDiv            0      0.00%     94.36% # attempts to use FU when none available
system.switch_cpus_10.iq.fu_full::SimdSqrt            0      0.00%     94.36% # attempts to use FU when none available
system.switch_cpus_10.iq.fu_full::SimdFloatAdd            0      0.00%     94.36% # attempts to use FU when none available
system.switch_cpus_10.iq.fu_full::SimdFloatAlu            0      0.00%     94.36% # attempts to use FU when none available
system.switch_cpus_10.iq.fu_full::SimdFloatCmp            0      0.00%     94.36% # attempts to use FU when none available
system.switch_cpus_10.iq.fu_full::SimdFloatCvt            0      0.00%     94.36% # attempts to use FU when none available
system.switch_cpus_10.iq.fu_full::SimdFloatDiv            0      0.00%     94.36% # attempts to use FU when none available
system.switch_cpus_10.iq.fu_full::SimdFloatMisc            0      0.00%     94.36% # attempts to use FU when none available
system.switch_cpus_10.iq.fu_full::SimdFloatMult            0      0.00%     94.36% # attempts to use FU when none available
[...]
system.cpu1.l2cache.ReadSharedReq_miss_rate::.switch_cpus_11.data     0.523311                       # miss rate for ReadSharedReq accesses
system.cpu1.l2cache.ReadSharedReq_miss_rate::total     0.532647                       # miss rate for ReadSharedReq accesses
system.cpu1.l2cache.ReadSharedReq_avg_miss_latency::.switch_cpus1.data 153702.741014                       # average ReadSharedReq miss latency
system.cpu1.l2cache.ReadSharedReq_avg_miss_latency::.switch_cpus_11.data 155374.648421                       # average ReadSharedReq miss latency
system.cpu1.l2cache.ReadSharedReq_avg_miss_latency::total 155309.552804                       # average ReadSharedReq miss latency
system.cpu1.l2cache.ReadSharedReq_mshr_misses::.switch_cpus1.data         1085                       # number of ReadSharedReq MSHR misses
system.cpu1.l2cache.ReadSharedReq_mshr_misses::.switch_cpus_11.data        26782                       # number of ReadSharedReq MSHR misses
system.cpu1.l2cache.ReadSharedReq_mshr_misses::total        27867                       # number of ReadSharedReq MSHR misses
system.cpu1.l2cache.ReadSharedReq_mshr_miss_latency::.switch_cpus1.data    166315029                       # number of ReadSharedReq MSHR miss cycles
system.cpu1.l2cache.ReadSharedReq_mshr_miss_latency::.switch_cpus_11.data   4150075740                       # number of ReadSharedReq MSHR miss cycles
system.cpu1.l2cache.ReadSharedReq_mshr_miss_latency::total   4316390769                       # number of ReadSharedReq MSHR miss cycles
system.cpu1.l2cache.ReadSharedReq_mshr_miss_rate::.switch_cpus1.data     0.951754                       # mshr miss rate for ReadSharedReq accesses
system.cpu1.l2cache.ReadSharedReq_mshr_miss_rate::.switch_cpus_11.data     0.523311                       # mshr miss rate for ReadSharedReq accesses
system.cpu1.l2cache.ReadSharedReq_mshr_miss_rate::total     0.532647                       # mshr miss rate for ReadSharedReq accesses
system.cpu1.l2cache.ReadSharedReq_avg_mshr_miss_latency::.switch_cpus1.data 153285.741014                       # average ReadSharedReq mshr miss latency
system.cpu1.l2cache.ReadSharedReq_avg_mshr_miss_latency::.switch_cpus_11.data 154957.648421                       # average ReadSharedReq mshr miss latency
system.cpu1.l2cache.ReadSharedReq_avg_mshr_miss_latency::total 154892.552804                       # average ReadSharedReq mshr miss latency
system.cpu1.l2cache.tags.pwrStateResidencyTicks::UNDEFINED 1319271209142                       # Cumulative time (in ticks) in various power states
system.cpu1.l2cache.tags.tagsinuse          72.855885                       # Cycle average of tags in use
system.cpu1.l2cache.tags.total_refs            104633                       # Total number of references to valid blocks.
system.cpu1.l2cache.tags.sampled_refs           28177                       # Sample count of references to valid blocks.
system.cpu1.l2cache.tags.avg_refs            3.713419                       # Average number of references to valid blocks.
system.cpu1.l2cache.tags.warmup_cycle    1293351708033                       # Cycle when the warmup percentage was hit.
system.cpu1.l2cache.tags.occ_blocks::.cpu1.inst     0.003678                       # Average occupied blocks per requestor
system.cpu1.l2cache.tags.occ_blocks::.cpu1.data     0.019647                       # Average occupied blocks per requestor
system.cpu1.l2cache.tags.occ_blocks::.switch_cpus1.inst     0.692304                       # Average occupied blocks per requestor
system.cpu1.l2cache.tags.occ_blocks::.switch_cpus1.data     9.815669                       # Average occupied blocks per requestor
system.cpu1.l2cache.tags.occ_blocks::.switch_cpus_11.inst     0.188694                       # Average occupied blocks per requestor
system.cpu1.l2cache.tags.occ_blocks::.switch_cpus_11.data    62.135893                       # Average occupied blocks per requestor
system.cpu1.l2cache.tags.occ_percent::.cpu1.inst     0.000001                       # Average percentage of cache occupancy
system.cpu1.l2cache.tags.occ_percent::.cpu1.data     0.000005                       # Average percentage of cache occupancy
system.cpu1.l2cache.tags.occ_percent::.switch_cpus1.inst     0.000169                       # Average percentage of cache occupancy
system.cpu1.l2cache.tags.occ_percent::.switch_cpus1.data     0.002396                       # Average percentage of cache occupancy
system.cpu1.l2cache.tags.occ_percent::.switch_cpus_11.inst     0.000046                       # Average percentage of cache occupancy
system.cpu1.l2cache.tags.occ_percent::.switch_cpus_11.data     0.015170                       # Average percentage of cache occupancy
system.cpu1.l2cache.tags.occ_percent::total     0.017787                       # Average percentage of cache occupancy
system.cpu1.l2cache.tags.occ_task_id_blocks::1024         4096                       # Occupied blocks per task id
system.cpu1.l2cache.tags.age_task_id_blocks_1024::0           14                       # Occupied blocks per task id
system.cpu1.l2cache.tags.age_task_id_blocks_1024::1          104                       # Occupied blocks per task id
system.cpu1.l2cache.tags.age_task_id_blocks_1024::2          898                       # Occupied blocks per task id
system.cpu1.l2cache.tags.age_task_id_blocks_1024::3         2572                       # Occupied blocks per task id
system.cpu1.l2cache.tags.age_task_id_blocks_1024::4          508                       # Occupied blocks per task id
system.cpu1.l2cache.tags.occ_task_id_percent::1024            1                       # Percentage of cache occupancy per task id
system.cpu1.l2cache.tags.tag_accesses         1702433                       # Number of tag accesses
system.cpu1.l2cache.tags.data_accesses        1702433                       # Number of data accesses
system.cpu1.toL2Bus.pwrStateResidencyTicks::UNDEFINED 1319271209142                       # Cumulative time (in ticks) in various power states
system.cpu1.toL2Bus.trans_dist::ReadResp        52603                       # Transaction distribution
system.cpu1.toL2Bus.trans_dist::WritebackDirty          173                       # Transaction distribution
system.cpu1.toL2Bus.trans_dist::CleanEvict        75977                       # Transaction distribution
system.cpu1.toL2Bus.trans_dist::ReadExReq          139                       # Transaction distribution
system.cpu1.toL2Bus.trans_dist::ReadExResp          139                       # Transaction distribution
system.cpu1.toL2Bus.trans_dist::ReadCleanReq          285                       # Transaction distribution
system.cpu1.toL2Bus.trans_dist::ReadSharedReq        52318                       # Transaction distribution
system.cpu1.toL2Bus.pkt_count_system.cpu1.icache.mem_side::system.cpu1.l2cache.cpu_side          570                       # Packet count per connected master and slave (bytes)
system.cpu1.toL2Bus.pkt_count_system.cpu1.dcache.mem_side::system.cpu1.l2cache.cpu_side       156859                       # Packet count per connected master and slave (bytes)
system.cpu1.toL2Bus.pkt_count::total           157429                       # Packet count per connected master and slave (bytes)
system.cpu1.toL2Bus.pkt_size_system.cpu1.icache.mem_side::system.cpu1.l2cache.cpu_side        18240                       # Cumulative packet size per connected master and slave (bytes)
system.cpu1.toL2Bus.pkt_size_system.cpu1.dcache.mem_side::system.cpu1.l2cache.cpu_side      3367808                       # Cumulative packet size per connected master and slave (bytes)
system.cpu1.toL2Bus.pkt_size::total           3386048                       # Cumulative packet size per connected master and slave (bytes)
system.cpu1.toL2Bus.snoops                      24205                       # Total snoops (count)
system.cpu1.toL2Bus.snoopTraffic                  512                       # Total snoop traffic (bytes)
system.cpu1.toL2Bus.snoop_fanout::samples        76947                       # Request fanout histogram
system.cpu1.toL2Bus.snoop_fanout::mean       0.006095                       # Request fanout histogram
system.cpu1.toL2Bus.snoop_fanout::stdev      0.077833                       # Request fanout histogram
system.cpu1.toL2Bus.snoop_fanout::underflows            0      0.00%      0.00% # Request fanout histogram
system.cpu1.toL2Bus.snoop_fanout::0             76478     99.39%     99.39% # Request fanout histogram
system.cpu1.toL2Bus.snoop_fanout::1               469      0.61%    100.00% # Request fanout histogram
system.cpu1.toL2Bus.snoop_fanout::2                 0      0.00%    100.00% # Request fanout histogram
system.cpu1.toL2Bus.snoop_fanout::3                 0      0.00%    100.00% # Request fanout histogram
system.cpu1.toL2Bus.snoop_fanout::4                 0      0.00%    100.00% # Request fanout histogram
system.cpu1.toL2Bus.snoop_fanout::overflows            0      0.00%    100.00% # Request fanout histogram
system.cpu1.toL2Bus.snoop_fanout::min_value            0                       # Request fanout histogram
system.cpu1.toL2Bus.snoop_fanout::max_value            1                       # Request fanout histogram
system.cpu1.toL2Bus.snoop_fanout::total         76947                       # Request fanout histogram
system.cpu1.toL2Bus.reqLayer0.occupancy      43791255                       # Layer occupancy (ticks)
system.cpu1.toL2Bus.reqLayer0.utilization          0.2                       # Layer utilization (%)
system.cpu1.toL2Bus.respLayer1.occupancy     65622456                       # Layer occupancy (ticks)
system.cpu1.toL2Bus.respLayer1.utilization          0.3                       # Layer utilization (%)
system.cpu1.toL2Bus.respLayer0.occupancy       355284                       # Layer occupancy (ticks)
system.cpu1.toL2Bus.respLayer0.utilization          0.0                       # Layer utilization (%)
system.switch_cpus_10.pwrStateResidencyTicks::OFF  25919501526                       # Cumulative time (in ticks) in various power states
system.switch_cpus_10.dtb.walker.pwrStateResidencyTicks::UNDEFINED 1319271209142                       # Cumulative time (in ticks) in various power states
system.switch_cpus_10.itb.walker.pwrStateResidencyTicks::UNDEFINED 1319271209142                       # Cumulative time (in ticks) in various power states
system.switch_cpus_11.pwrStateResidencyTicks::OFF  25919501526                       # Cumulative time (in ticks) in various power states
system.switch_cpus_11.dtb.walker.pwrStateResidencyTicks::UNDEFINED 1319271209142                       # Cumulative time (in ticks) in various power states
system.switch_cpus_11.itb.walker.pwrStateResidencyTicks::UNDEFINED 1319271209142                       # Cumulative time (in ticks) in various power states
system.cpu_voltage_domain.voltage                   1                       # Voltage in Volts
system.switch_cpus1.numPwrStateTransitions            1                       # Number of power state transitions
system.switch_cpus1.pwrStateResidencyTicks::UNDEFINED 1293351707616                       # Cumulative time (in ticks) in various power states
system.switch_cpus1.pwrStateResidencyTicks::OFF  25919501526                       # Cumulative time (in ticks) in various power states
system.switch_cpus1.dtb.walker.pwrStateResidencyTicks::UNDEFINED 1319271209142                       # Cumulative time (in ticks) in various power states
system.switch_cpus1.itb.walker.pwrStateResidencyTicks::UNDEFINED 1319271209142                       # Cumulative time (in ticks) in various power states
system.mem_ctrls.pwrStateResidencyTicks::UNDEFINED 1319271209142                       # Cumulative time (in ticks) in various power states
system.mem_ctrls.bytes_read::.cpu0.inst            64                       # Number of bytes read from this memory
system.mem_ctrls.bytes_read::.cpu1.inst            64                       # Number of bytes read from this memory
system.mem_ctrls.bytes_read::.cpu1.data            64                       # Number of bytes read from this memory
system.mem_ctrls.bytes_read::.switch_cpus0.inst        20864                       # Number of bytes read from this memory
system.mem_ctrls.bytes_read::.switch_cpus0.data        58944                       # Number of bytes read from this memory
system.mem_ctrls.bytes_read::.switch_cpus1.inst        12672                       # Number of bytes read from this memory
system.mem_ctrls.bytes_read::.switch_cpus1.data        70784                       # Number of bytes read from this memory
system.mem_ctrls.bytes_read::.switch_cpus_10.inst        24512                       # Number of bytes read from this memory
system.mem_ctrls.bytes_read::.switch_cpus_10.data       342464                       # Number of bytes read from this memory
system.mem_ctrls.bytes_read::.switch_cpus_11.inst         5504                       # Number of bytes read from this memory
system.mem_ctrls.bytes_read::.switch_cpus_11.data      1712960                       # Number of bytes read from this memory
system.mem_ctrls.bytes_read::total            2248896                       # Number of bytes read from this memory
system.mem_ctrls.bytes_inst_read::.cpu0.inst           64                       # Number of instructions bytes read from this memory
system.mem_ctrls.bytes_inst_read::.cpu1.inst           64                       # Number of instructions bytes read from this memory
system.mem_ctrls.bytes_inst_read::.switch_cpus0.inst        20864                       # Number of instructions bytes read from this memory
system.mem_ctrls.bytes_inst_read::.switch_cpus1.inst        12672                       # Number of instructions bytes read from this memory
system.mem_ctrls.bytes_inst_read::.switch_cpus_10.inst        24512                       # Number of instructions bytes read from this memory
system.mem_ctrls.bytes_inst_read::.switch_cpus_11.inst         5504                       # Number of instructions bytes read from this memory
system.mem_ctrls.bytes_inst_read::total         63680                       # Number of instructions bytes read from this memory
system.mem_ctrls.num_reads::.cpu0.inst              1                       # Number of read requests responded to by this memory
system.mem_ctrls.num_reads::.cpu1.inst              1                       # Number of read requests responded to by this memory
system.mem_ctrls.num_reads::.cpu1.data              1                       # Number of read requests responded to by this memory
system.mem_ctrls.num_reads::.switch_cpus0.inst          326                       # Number of read requests responded to by this memory
system.mem_ctrls.num_reads::.switch_cpus0.data          921                       # Number of read requests responded to by this memory
system.mem_ctrls.num_reads::.switch_cpus1.inst          198                       # Number of read requests responded to by this memory
system.mem_ctrls.num_reads::.switch_cpus1.data         1106                       # Number of read requests responded to by this memory
system.mem_ctrls.num_reads::.switch_cpus_10.inst          383                       # Number of read requests responded to by this memory
system.mem_ctrls.num_reads::.switch_cpus_10.data         5351                       # Number of read requests responded to by this memory
system.mem_ctrls.num_reads::.switch_cpus_11.inst           86                       # Number of read requests responded to by this memory
system.mem_ctrls.num_reads::.switch_cpus_11.data        26765                       # Number of read requests responded to by this memory
system.mem_ctrls.num_reads::total               35139                       # Number of read requests responded to by this memory
system.mem_ctrls.bw_read::.cpu0.inst             2469                       # Total read bandwidth from this memory (bytes/s)
system.mem_ctrls.bw_read::.cpu1.inst             2469                       # Total read bandwidth from this memory (bytes/s)
system.mem_ctrls.bw_read::.cpu1.data             2469                       # Total read bandwidth from this memory (bytes/s)
system.mem_ctrls.bw_read::.switch_cpus0.inst       804954                       # Total read bandwidth from this memory (bytes/s)
system.mem_ctrls.bw_read::.switch_cpus0.data      2274118                       # Total read bandwidth from this memory (bytes/s)
system.mem_ctrls.bw_read::.switch_cpus1.inst       488898                       # Total read bandwidth from this memory (bytes/s)
system.mem_ctrls.bw_read::.switch_cpus1.data      2730917                       # Total read bandwidth from this memory (bytes/s)
system.mem_ctrls.bw_read::.switch_cpus_10.inst       945697                       # Total read bandwidth from this memory (bytes/s)
system.mem_ctrls.bw_read::.switch_cpus_10.data     13212600                       # Total read bandwidth from this memory (bytes/s)
system.mem_ctrls.bw_read::.switch_cpus_11.inst       212350                       # Total read bandwidth from this memory (bytes/s)
system.mem_ctrls.bw_read::.switch_cpus_11.data     66087691                       # Total read bandwidth from this memory (bytes/s)
system.mem_ctrls.bw_read::total              86764632                       # Total read bandwidth from this memory (bytes/s)
system.mem_ctrls.bw_inst_read::.cpu0.inst         2469                       # Instruction read bandwidth from this memory (bytes/s)
system.mem_ctrls.bw_inst_read::.cpu1.inst         2469                       # Instruction read bandwidth from this memory (bytes/s)
system.mem_ctrls.bw_inst_read::.switch_cpus0.inst       804954                       # Instruction read bandwidth from this memory (bytes/s)
system.mem_ctrls.bw_inst_read::.switch_cpus1.inst       488898                       # Instruction read bandwidth from this memory (bytes/s)
system.mem_ctrls.bw_inst_read::.switch_cpus_10.inst       945697                       # Instruction read bandwidth from this memory (bytes/s)
system.mem_ctrls.bw_inst_read::.switch_cpus_11.inst       212350                       # Instruction read bandwidth from this memory (bytes/s)
system.mem_ctrls.bw_inst_read::total          2456837                       # Instruction read bandwidth from this memory (bytes/s)
system.mem_ctrls.bw_total::.cpu0.inst            2469                       # Total bandwidth to/from this memory (bytes/s)
system.mem_ctrls.bw_total::.cpu1.inst            2469                       # Total bandwidth to/from this memory (bytes/s)
system.mem_ctrls.bw_total::.cpu1.data            2469                       # Total bandwidth to/from this memory (bytes/s)
system.mem_ctrls.bw_total::.switch_cpus0.inst       804954                       # Total bandwidth to/from this memory (bytes/s)
system.mem_ctrls.bw_total::.switch_cpus0.data      2274118                       # Total bandwidth to/from this memory (bytes/s)
system.mem_ctrls.bw_total::.switch_cpus1.inst       488898                       # Total bandwidth to/from this memory (bytes/s)
system.mem_ctrls.bw_total::.switch_cpus1.data      2730917                       # Total bandwidth to/from this memory (bytes/s)
system.mem_ctrls.bw_total::.switch_cpus_10.inst       945697                       # Total bandwidth to/from this memory (bytes/s)
system.mem_ctrls.bw_total::.switch_cpus_10.data     13212600                       # Total bandwidth to/from this memory (bytes/s)
system.mem_ctrls.bw_total::.switch_cpus_11.inst       212350                       # Total bandwidth to/from this memory (bytes/s)
system.mem_ctrls.bw_total::.switch_cpus_11.data     66087691                       # Total bandwidth to/from this memory (bytes/s)
system.mem_ctrls.bw_total::total             86764632                       # Total bandwidth to/from this memory (bytes/s)
system.cpu_clk_domain.clock                       417                       # Clock period in ticks

---------- End Simulation Statistics   ----------
