
---------- Begin Simulation Statistics ----------
final_tick                               1320637415400                       # Number of ticks from beginning of simulation (restored from checkpoints and never reset)
host_inst_rate                                 145301                       # Simulator instruction rate (inst/s)
host_mem_usage                                4589900                       # Number of bytes of host memory used
host_op_rate                                   271880                       # Simulator op (including micro ops) rate (op/s)
host_seconds                                   550.88                       # Real time elapsed on the host
host_tick_rate                               49531508                       # Simulator tick rate (ticks/s)
sim_freq                                 1000000000000                       # Frequency of simulated ticks
sim_insts                                    80042651                       # Number of instructions simulated
sim_ops                                     149772054                       # Number of ops (including micro ops) simulated
sim_seconds                                  0.027286                       # Number of seconds simulated
sim_ticks                                 27285707784                       # Number of ticks simulated
system.cpu0.committedInsts                          2                       # Number of instructions committed
system.cpu0.committedOps                            4                       # Number of ops (including micro ops) committed
system.cpu0.dtb.rdAccesses                          0                       # TLB accesses on read requests
system.cpu0.dtb.rdMisses                            0                       # TLB misses on read requests
system.cpu0.dtb.wrAccesses                          0                       # TLB accesses on write requests
system.cpu0.dtb.wrMisses                            0                       # TLB misses on write requests
system.cpu0.idle_fraction                           0                       # Percentage of idle cycles
system.cpu0.itb.rdAccesses                          0                       # TLB accesses on read requests
system.cpu0.itb.rdMisses                            0                       # TLB misses on read requests
system.cpu0.itb.wrAccesses                          3                       # TLB accesses on write requests
system.cpu0.itb.wrMisses                            0                       # TLB misses on write requests
system.cpu0.not_idle_fraction                       1                       # Percentage of non-idle cycles
system.cpu0.numCycles                               5                       # number of cpu cycles simulated
system.cpu0.numWorkItemsCompleted                   0                       # number of work items this cpu completed
system.cpu0.numWorkItemsStarted                     0                       # number of work items this cpu started
system.cpu0.num_busy_cycles                         5                       # Number of busy cycles
system.cpu0.num_cc_register_writes                  2                       # number of times the CC registers were written
system.cpu0.num_conditional_control_insts            0                       # number of instructions that are conditional controls
system.cpu0.num_fp_alu_accesses                     0                       # Number of float alu accesses
system.cpu0.num_fp_insts                            0                       # number of float instructions
system.cpu0.num_fp_register_reads                   0                       # number of times the floating registers were read
system.cpu0.num_fp_register_writes                  0                       # number of times the floating registers were written
system.cpu0.num_func_calls                          0                       # number of times a function call or return occured
system.cpu0.num_idle_cycles                         0                       # Number of idle cycles
system.cpu0.num_int_alu_accesses                    4                       # Number of integer alu accesses
system.cpu0.num_int_insts                           4                       # number of integer instructions
system.cpu0.num_int_register_reads                  6                       # number of times the integer registers were read
system.cpu0.num_int_register_writes                 4                       # number of times the integer registers were written
system.cpu0.num_load_insts                          0                       # Number of load instructions
system.cpu0.num_mem_refs                            0                       # number of memory refs
system.cpu0.num_store_insts                         0                       # Number of store instructions
system.cpu0.num_vec_alu_accesses                    0                       # Number of vector alu accesses
system.cpu0.num_vec_insts                           0                       # number of vector instructions
system.cpu0.num_vec_register_reads                  0                       # number of times the vector registers were read
system.cpu0.num_vec_register_writes                 0                       # number of times the vector registers were written
system.cpu0.op_class::No_OpClass                    0      0.00%      0.00% # Class of executed instruction
system.cpu0.op_class::IntAlu                        4    100.00%    100.00% # Class of executed instruction
system.cpu0.op_class::IntMult                       0      0.00%    100.00% # Class of executed instruction
system.cpu0.op_class::IntDiv                        0      0.00%    100.00% # Class of executed instruction
system.cpu0.op_class::FloatAdd                      0      0.00%    100.00% # Class of executed instruction
system.cpu0.op_class::FloatCmp                      0      0.00%    100.00% # Class of executed instruction
system.cpu0.op_class::FloatCvt                      0      0.00%    100.00% # Class of executed instruction
system.cpu0.op_class::FloatMult                     0      0.00%    100.00% # Class of executed instruction
system.cpu0.op_class::FloatMultAcc                  0      0.00%    100.00% # Class of executed instruction
system.cpu0.op_class::FloatDiv                      0      0.00%    100.00% # Class of executed instruction
system.cpu0.op_class::FloatMisc                     0      0.00%    100.00% # Class of executed instruction
system.cpu0.op_class::FloatSqrt                     0      0.00%    100.00% # Class of executed instruction
system.cpu0.op_class::SimdAdd                       0      0.00%    100.00% # Class of executed instruction
system.cpu0.op_class::SimdAddAcc                    0      0.00%    100.00% # Class of executed instruction
system.cpu0.op_class::SimdAlu                       0      0.00%    100.00% # Class of executed instruction
system.cpu0.op_class::SimdCmp                       0      0.00%    100.00% # Class of executed instruction
system.cpu0.op_class::SimdCvt                       0      0.00%    100.00% # Class of executed instruction
system.cpu0.op_class::SimdMisc                      0      0.00%    100.00% # Class of executed instruction
system.cpu0.op_class::SimdMult                      0      0.00%    100.00% # Class of executed instruction
system.cpu0.op_class::SimdMultAcc                   0      0.00%    100.00% # Class of executed instruction
system.cpu0.op_class::SimdShift                     0      0.00%    100.00% # Class of executed instruction
system.cpu0.op_class::SimdShiftAcc                  0      0.00%    100.00% # Class of executed instruction
system.cpu0.op_class::SimdDiv                       0      0.00%    100.00% # Class of executed instruction
system.cpu0.op_class::SimdSqrt                      0      0.00%    100.00% # Class of executed instruction
system.cpu0.op_class::SimdFloatAdd                  0      0.00%    100.00% # Class of executed instruction
system.cpu0.op_class::SimdFloatAlu                  0      0.00%    100.00% # Class of executed instruction
system.cpu0.op_class::SimdFloatCmp                  0      0.00%    100.00% # Class of executed instruction
system.cpu0.op_class::SimdFloatCvt                  0      0.00%    100.00% # Class of executed instruction
system.cpu0.op_class::SimdFloatDiv                  0      0.00%    100.00% # Class of executed instruction
system.cpu0.op_class::SimdFloatMisc                 0      0.00%    100.00% # Class of executed instruction
system.cpu0.op_class::SimdFloatMult                 0      0.00%    100.00% # Class of executed instruction
system.cpu0.op_class::SimdFloatMultAcc              0      0.00%    100.00% # Class of executed instruction
system.cpu0.op_class::SimdFloatSqrt                 0      0.00%    100.00% # Class of executed instruction
system.cpu0.op_class::SimdReduceAdd                 0      0.00%    100.00% # Class of executed instruction
system.cpu0.op_class::SimdReduceAlu                 0      0.00%    100.00% # Class of executed instruction
system.cpu0.op_class::SimdReduceCmp                 0      0.00%    100.00% # Class of executed instruction
system.cpu0.op_class::SimdFloatReduceAdd            0      0.00%    100.00% # Class of executed instruction
system.cpu0.op_class::SimdFloatReduceCmp            0      0.00%    100.00% # Class of executed instruction
system.cpu0.op_class::SimdAes                       0      0.00%    100.00% # Class of executed instruction
system.cpu0.op_class::SimdAesMix                    0      0.00%    100.00% # Class of executed instruction
system.cpu0.op_class::SimdSha1Hash                  0      0.00%    100.00% # Class of executed instruction
system.cpu0.op_class::SimdSha1Hash2                 0      0.00%    100.00% # Class of executed instruction
system.cpu0.op_class::SimdSha256Hash                0      0.00%    100.00% # Class of executed instruction
system.cpu0.op_class::SimdSha256Hash2               0      0.00%    100.00% # Class of executed instruction
system.cpu0.op_class::SimdShaSigma2                 0      0.00%    100.00% # Class of executed instruction
system.cpu0.op_class::SimdShaSigma3                 0      0.00%    100.00% # Class of executed instruction
system.cpu0.op_class::SimdPredAlu                   0      0.00%    100.00% # Class of executed instruction
system.cpu0.op_class::MemRead                       0      0.00%    100.00% # Class of executed instruction
system.cpu0.op_class::MemWrite                      0      0.00%    100.00% # Class of executed instruction
system.cpu0.op_class::FloatMemRead                  0      0.00%    100.00% # Class of executed instruction
system.cpu0.op_class::FloatMemWrite                 0      0.00%    100.00% # Class of executed instruction
system.cpu0.op_class::IprAccess                     0      0.00%    100.00% # Class of executed instruction
system.cpu0.op_class::InstPrefetch                  0      0.00%    100.00% # Class of executed instruction
system.cpu0.op_class::total                         4                       # Class of executed instruction
system.cpu0.toL2Bus.snoop_filter.hit_multi_requests          426                       # Number of requests hitting in the snoop filter with multiple (>1) holders of the requested data.
system.cpu0.toL2Bus.snoop_filter.hit_multi_snoops            3                       # Number of snoops hitting in the snoop filter with multiple (>1) holders of the requested data.
system.cpu0.toL2Bus.snoop_filter.hit_single_requests       246636                       # Number of requests hitting in the snoop filter with a single holder of the requested data.
system.cpu0.toL2Bus.snoop_filter.hit_single_snoops         2037                       # Number of snoops hitting in the snoop filter with a single holder of the requested data.
system.cpu0.toL2Bus.snoop_filter.tot_requests       493608                       # Total number of requests made to the snoop filter.
system.cpu0.toL2Bus.snoop_filter.tot_snoops         2040                       # Total number of snoops made to the snoop filter.
system.cpu0.toL3Bus.snoop_filter.hit_multi_requests            0                       # Number of requests hitting in the snoop filter with multiple (>1) holders of the requested data.
system.cpu0.toL3Bus.snoop_filter.hit_multi_snoops            0                       # Number of snoops hitting in the snoop filter with multiple (>1) holders of the requested data.
system.cpu0.toL3Bus.snoop_filter.hit_single_requests       134857                       # Number of requests hitting in the snoop filter with a single holder of the requested data.
system.cpu0.toL3Bus.snoop_filter.hit_single_snoops          523                       # Number of snoops hitting in the snoop filter with a single holder of the requested data.
system.cpu0.toL3Bus.snoop_filter.tot_requests       274325                       # Total number of requests made to the snoop filter.
system.cpu0.toL3Bus.snoop_filter.tot_snoops          523                       # Total number of snoops made to the snoop filter.
system.cpu0.workload.numSyscalls                  229                       # Number of system calls
system.cpu1.Branches                                1                       # Number of branches fetched
system.cpu1.committedInsts                          1                       # Number of instructions committed
system.cpu1.committedOps                            5                       # Number of ops (including micro ops) committed
system.cpu1.dtb.rdAccesses                          0                       # TLB accesses on read requests
system.cpu1.dtb.rdMisses                            0                       # TLB misses on read requests
system.cpu1.dtb.wrAccesses                          1                       # TLB accesses on write requests
system.cpu1.dtb.wrMisses                            0                       # TLB misses on write requests
system.cpu1.idle_fraction                           0                       # Percentage of idle cycles
system.cpu1.itb.rdAccesses                          0                       # TLB accesses on read requests
system.cpu1.itb.rdMisses                            0                       # TLB misses on read requests
system.cpu1.itb.wrAccesses                          2                       # TLB accesses on write requests
system.cpu1.itb.wrMisses                            0                       # TLB misses on write requests
system.cpu1.not_idle_fraction                       1                       # Percentage of non-idle cycles
system.cpu1.numCycles                               6                       # number of cpu cycles simulated
system.cpu1.numWorkItemsCompleted                   0                       # number of work items this cpu completed
system.cpu1.numWorkItemsStarted                     0                       # number of work items this cpu started
system.cpu1.num_busy_cycles                         6                       # Number of busy cycles
system.cpu1.num_conditional_control_insts            0                       # number of instructions that are conditional controls
system.cpu1.num_fp_alu_accesses                     0                       # Number of float alu accesses
system.cpu1.num_fp_insts                            0                       # number of float instructions
system.cpu1.num_fp_register_reads                   0                       # number of times the floating registers were read
system.cpu1.num_fp_register_writes                  0                       # number of times the floating registers were written
system.cpu1.num_func_calls                          1                       # number of times a function call or return occured
system.cpu1.num_idle_cycles                         0                       # Number of idle cycles
system.cpu1.num_int_alu_accesses                    5                       # Number of integer alu accesses
system.cpu1.num_int_insts                           5                       # number of integer instructions
system.cpu1.num_int_register_reads                  9                       # number of times the integer registers were read
system.cpu1.num_int_register_writes                 3                       # number of times the integer registers were written
system.cpu1.num_load_insts                          0                       # Number of load instructions
system.cpu1.num_mem_refs                            1                       # number of memory refs
system.cpu1.num_store_insts                         1                       # Number of store instructions
system.cpu1.num_vec_alu_accesses                    0                       # Number of vector alu accesses
system.cpu1.num_vec_insts                           0                       # number of vector instructions
system.cpu1.num_vec_register_reads                  0                       # number of times the vector registers were read
system.cpu1.num_vec_register_writes                 0                       # number of times the vector registers were written
system.cpu1.op_class::No_OpClass                    0      0.00%      0.00% # Class of executed instruction
system.cpu1.op_class::IntAlu                        4     80.00%     80.00% # Class of executed instruction
system.cpu1.op_class::IntMult                       0      0.00%     80.00% # Class of executed instruction
system.cpu1.op_class::IntDiv                        0      0.00%     80.00% # Class of executed instruction
system.cpu1.op_class::FloatAdd                      0      0.00%     80.00% # Class of executed instruction
system.cpu1.op_class::FloatCmp                      0      0.00%     80.00% # Class of executed instruction
system.cpu1.op_class::FloatCvt                      0      0.00%     80.00% # Class of executed instruction
system.cpu1.op_class::FloatMult                     0      0.00%     80.00% # Class of executed instruction
system.cpu1.op_class::FloatMultAcc                  0      0.00%     80.00% # Class of executed instruction
system.cpu1.op_class::FloatDiv                      0      0.00%     80.00% # Class of executed instruction
system.cpu1.op_class::FloatMisc                     0      0.00%     80.00% # Class of executed instruction
system.cpu1.op_class::FloatSqrt                     0      0.00%     80.00% # Class of executed instruction
system.cpu1.op_class::SimdAdd                       0      0.00%     80.00% # Class of executed instruction
system.cpu1.op_class::SimdAddAcc                    0      0.00%     80.00% # Class of executed instruction
system.cpu1.op_class::SimdAlu                       0      0.00%     80.00% # Class of executed instruction
system.cpu1.op_class::SimdCmp                       0      0.00%     80.00% # Class of executed instruction
system.cpu1.op_class::SimdCvt                       0      0.00%     80.00% # Class of executed instruction
system.cpu1.op_class::SimdMisc                      0      0.00%     80.00% # Class of executed instruction
system.cpu1.op_class::SimdMult                      0      0.00%     80.00% # Class of executed instruction
system.cpu1.op_class::SimdMultAcc                   0      0.00%     80.00% # Class of executed instruction
system.cpu1.op_class::SimdShift                     0      0.00%     80.00% # Class of executed instruction
system.cpu1.op_class::SimdShiftAcc                  0      0.00%     80.00% # Class of executed instruction
system.cpu1.op_class::SimdDiv                       0      0.00%     80.00% # Class of executed instruction
system.cpu1.op_class::SimdSqrt                      0      0.00%     80.00% # Class of executed instruction
system.cpu1.op_class::SimdFloatAdd                  0      0.00%     80.00% # Class of executed instruction
system.cpu1.op_class::SimdFloatAlu                  0      0.00%     80.00% # Class of executed instruction
system.cpu1.op_class::SimdFloatCmp                  0      0.00%     80.00% # Class of executed instruction
system.cpu1.op_class::SimdFloatCvt                  0      0.00%     80.00% # Class of executed instruction
system.cpu1.op_class::SimdFloatDiv                  0      0.00%     80.00% # Class of executed instruction
system.cpu1.op_class::SimdFloatMisc                 0      0.00%     80.00% # Class of executed instruction
system.cpu1.op_class::SimdFloatMult                 0      0.00%     80.00% # Class of executed instruction
system.cpu1.op_class::SimdFloatMultAcc              0      0.00%     80.00% # Class of executed instruction
system.cpu1.op_class::SimdFloatSqrt                 0      0.00%     80.00% # Class of executed instruction
system.cpu1.op_class::SimdReduceAdd                 0      0.00%     80.00% # Class of executed instruction
system.cpu1.op_class::SimdReduceAlu                 0      0.00%     80.00% # Class of executed instruction
system.cpu1.op_class::SimdReduceCmp                 0      0.00%     80.00% # Class of executed instruction
system.cpu1.op_class::SimdFloatReduceAdd            0      0.00%     80.00% # Class of executed instruction
system.cpu1.op_class::SimdFloatReduceCmp            0      0.00%     80.00% # Class of executed instruction
system.cpu1.op_class::SimdAes                       0      0.00%     80.00% # Class of executed instruction
system.cpu1.op_class::SimdAesMix                    0      0.00%     80.00% # Class of executed instruction
system.cpu1.op_class::SimdSha1Hash                  0      0.00%     80.00% # Class of executed instruction
system.cpu1.op_class::SimdSha1Hash2                 0      0.00%     80.00% # Class of executed instruction
system.cpu1.op_class::SimdSha256Hash                0      0.00%     80.00% # Class of executed instruction
system.cpu1.op_class::SimdSha256Hash2               0      0.00%     80.00% # Class of executed instruction
system.cpu1.op_class::SimdShaSigma2                 0      0.00%     80.00% # Class of executed instruction
system.cpu1.op_class::SimdShaSigma3                 0      0.00%     80.00% # Class of executed instruction
system.cpu1.op_class::SimdPredAlu                   0      0.00%     80.00% # Class of executed instruction
system.cpu1.op_class::MemRead                       0      0.00%     80.00% # Class of executed instruction
system.cpu1.op_class::MemWrite                      1     20.00%    100.00% # Class of executed instruction
system.cpu1.op_class::FloatMemRead                  0      0.00%    100.00% # Class of executed instruction
system.cpu1.op_class::FloatMemWrite                 0      0.00%    100.00% # Class of executed instruction
system.cpu1.op_class::IprAccess                     0      0.00%    100.00% # Class of executed instruction
system.cpu1.op_class::InstPrefetch                  0      0.00%    100.00% # Class of executed instruction
system.cpu1.op_class::total                         5                       # Class of executed instruction
system.cpu1.toL2Bus.snoop_filter.hit_multi_requests           46                       # Number of requests hitting in the snoop filter with multiple (>1) holders of the requested data.
system.cpu1.toL2Bus.snoop_filter.hit_multi_snoops            0                       # Number of snoops hitting in the snoop filter with multiple (>1) holders of the requested data.
system.cpu1.toL2Bus.snoop_filter.hit_single_requests        56205                       # Number of requests hitting in the snoop filter with a single holder of the requested data.
system.cpu1.toL2Bus.snoop_filter.hit_single_snoops          500                       # Number of snoops hitting in the snoop filter with a single holder of the requested data.
system.cpu1.toL2Bus.snoop_filter.tot_requests       113208                       # Total number of requests made to the snoop filter.
system.cpu1.toL2Bus.snoop_filter.tot_snoops          500                       # Total number of snoops made to the snoop filter.
system.cpu1.toL3Bus.snoop_filter.hit_multi_requests            0                       # Number of requests hitting in the snoop filter with multiple (>1) holders of the requested data.
system.cpu1.toL3Bus.snoop_filter.hit_multi_snoops            0                       # Number of snoops hitting in the snoop filter with multiple (>1) holders of the requested data.
system.cpu1.toL3Bus.snoop_filter.hit_single_requests        25925                       # Number of requests hitting in the snoop filter with a single holder of the requested data.
system.cpu1.toL3Bus.snoop_filter.hit_single_snoops          234                       # Number of snoops hitting in the snoop filter with a single holder of the requested data.
system.cpu1.toL3Bus.snoop_filter.tot_requests        56266                       # Total number of requests made to the snoop filter.
system.cpu1.toL3Bus.snoop_filter.tot_snoops          234                       # Total number of snoops made to the snoop filter.
system.cpu1.workload.numSyscalls                16989                       # Number of system calls
system.membus.snoop_filter.hit_multi_requests            0                       # Number of requests hitting in the snoop filter with multiple (>1) holders of the requested data.
system.membus.snoop_filter.hit_multi_snoops            0                       # Number of snoops hitting in the snoop filter with multiple (>1) holders of the requested data.
system.membus.snoop_filter.hit_single_requests        99150                       # Number of requests hitting in the snoop filter with a single holder of the requested data.
system.membus.snoop_filter.hit_single_snoops            0                       # Number of snoops hitting in the snoop filter with a single holder of the requested data.
system.membus.snoop_filter.tot_requests        261306                       # Total number of requests made to the snoop filter.
system.membus.snoop_filter.tot_snoops               0                       # Total number of snoops made to the snoop filter.
system.switch_cpus0.Branches                   188701                       # Number of branches fetched
system.switch_cpus0.committedInsts             763041                       # Number of instructions committed
system.switch_cpus0.committedOps              1525141                       # Number of ops (including micro ops) committed
system.switch_cpus0.dtb.rdAccesses             207743                       # TLB accesses on read requests
system.switch_cpus0.dtb.rdMisses                 1254                       # TLB misses on read requests
system.switch_cpus0.dtb.wrAccesses              88511                       # TLB accesses on write requests
system.switch_cpus0.dtb.wrMisses                   13                       # TLB misses on write requests
system.switch_cpus0.idle_fraction            0.000000                       # Percentage of idle cycles
system.switch_cpus0.itb.rdAccesses                  0                       # TLB accesses on read requests
system.switch_cpus0.itb.rdMisses                    0                       # TLB misses on read requests
system.switch_cpus0.itb.wrAccesses             985613                       # TLB accesses on write requests
system.switch_cpus0.itb.wrMisses                  305                       # TLB misses on write requests
system.switch_cpus0.not_idle_fraction        1.000000                       # Percentage of non-idle cycles
system.switch_cpus0.numCycles                 5746916                       # number of cpu cycles simulated
system.switch_cpus0.numWorkItemsCompleted            0                       # number of work items this cpu completed
system.switch_cpus0.numWorkItemsStarted             0                       # number of work items this cpu started
system.switch_cpus0.num_busy_cycles      5746915.473029                       # Number of busy cycles
system.switch_cpus0.num_cc_register_reads      1072932                       # number of times the CC registers were read
system.switch_cpus0.num_cc_register_writes       488140                       # number of times the CC registers were written
system.switch_cpus0.num_conditional_control_insts       127148                       # number of instructions that are conditional controls
system.switch_cpus0.num_fp_alu_accesses         24339                       # Number of float alu accesses
system.switch_cpus0.num_fp_insts                24339                       # number of float instructions
system.switch_cpus0.num_fp_register_reads        37774                       # number of times the floating registers were read
system.switch_cpus0.num_fp_register_writes        19516                       # number of times the floating registers were written
system.switch_cpus0.num_func_calls              39209                       # number of times a function call or return occured
system.switch_cpus0.num_idle_cycles          0.526971                       # Number of idle cycles
system.switch_cpus0.num_int_alu_accesses      1504815                       # Number of integer alu accesses
system.switch_cpus0.num_int_insts             1504815                       # number of integer instructions
system.switch_cpus0.num_int_register_reads      2952015                       # number of times the integer registers were read
system.switch_cpus0.num_int_register_writes      1225637                       # number of times the integer registers were written
system.switch_cpus0.num_load_insts             207551                       # Number of load instructions
system.switch_cpus0.num_mem_refs               295997                       # number of memory refs
system.switch_cpus0.num_store_insts             88446                       # Number of store instructions
system.switch_cpus0.num_vec_alu_accesses            0                       # Number of vector alu accesses
system.switch_cpus0.num_vec_insts                   0                       # number of vector instructions
system.switch_cpus0.num_vec_register_reads            0                       # number of times the vector registers were read
system.switch_cpus0.num_vec_register_writes            0                       # number of times the vector registers were written
system.switch_cpus0.op_class::No_OpClass         5459      0.36%      0.36% # Class of executed instruction
system.switch_cpus0.op_class::IntAlu          1205409     79.03%     79.39% # Class of executed instruction
system.switch_cpus0.op_class::IntMult              38      0.00%     79.39% # Class of executed instruction
system.switch_cpus0.op_class::IntDiv              155      0.01%     79.40% # Class of executed instruction
system.switch_cpus0.op_class::FloatAdd            135      0.01%     79.41% # Class of executed instruction
system.switch_cpus0.op_class::FloatCmp              0      0.00%     79.41% # Class of executed instruction
system.switch_cpus0.op_class::FloatCvt            144      0.01%     79.42% # Class of executed instruction
system.switch_cpus0.op_class::FloatMult             0      0.00%     79.42% # Class of executed instruction
system.switch_cpus0.op_class::FloatMultAcc            0      0.00%     79.42% # Class of executed instruction
system.switch_cpus0.op_class::FloatDiv              0      0.00%     79.42% # Class of executed instruction
system.switch_cpus0.op_class::FloatMisc             0      0.00%     79.42% # Class of executed instruction
system.switch_cpus0.op_class::FloatSqrt             0      0.00%     79.42% # Class of executed instruction
system.switch_cpus0.op_class::SimdAdd              60      0.00%     79.43% # Class of executed instruction
system.switch_cpus0.op_class::SimdAddAcc            0      0.00%     79.43% # Class of executed instruction
system.switch_cpus0.op_class::SimdAlu           10360      0.68%     80.10% # Class of executed instruction
system.switch_cpus0.op_class::SimdCmp               0      0.00%     80.10% # Class of executed instruction
system.switch_cpus0.op_class::SimdCvt            3620      0.24%     80.34% # Class of executed instruction
system.switch_cpus0.op_class::SimdMisc           3755      0.25%     80.59% # Class of executed instruction
system.switch_cpus0.op_class::SimdMult              0      0.00%     80.59% # Class of executed instruction
system.switch_cpus0.op_class::SimdMultAcc            0      0.00%     80.59% # Class of executed instruction
system.switch_cpus0.op_class::SimdShift            60      0.00%     80.59% # Class of executed instruction
system.switch_cpus0.op_class::SimdShiftAcc            0      0.00%     80.59% # Class of executed instruction
system.switch_cpus0.op_class::SimdDiv               0      0.00%     80.59% # Class of executed instruction
system.switch_cpus0.op_class::SimdSqrt              0      0.00%     80.59% # Class of executed instruction
system.switch_cpus0.op_class::SimdFloatAdd            0      0.00%     80.59% # Class of executed instruction
system.switch_cpus0.op_class::SimdFloatAlu            0      0.00%     80.59% # Class of executed instruction
system.switch_cpus0.op_class::SimdFloatCmp            0      0.00%     80.59% # Class of executed instruction
system.switch_cpus0.op_class::SimdFloatCvt            9      0.00%     80.59% # Class of executed instruction
system.switch_cpus0.op_class::SimdFloatDiv            0      0.00%     80.59% # Class of executed instruction
system.switch_cpus0.op_class::SimdFloatMisc            0      0.00%     80.59% # Class of executed instruction
system.switch_cpus0.op_class::SimdFloatMult            0      0.00%     80.59% # Class of executed instruction
system.switch_cpus0.op_class::SimdFloatMultAcc            0      0.00%     80.59% # Class of executed instruction
system.switch_cpus0.op_class::SimdFloatSqrt            0      0.00%     80.59% # Class of executed instruction
system.switch_cpus0.op_class::SimdReduceAdd            0      0.00%     80.59% # Class of executed instruction
system.switch_cpus0.op_class::SimdReduceAlu            0      0.00%     80.59% # Class of executed instruction
system.switch_cpus0.op_class::SimdReduceCmp            0      0.00%     80.59% # Class of executed instruction
system.switch_cpus0.op_class::SimdFloatReduceAdd            0      0.00%     80.59% # Class of executed instruction
system.switch_cpus0.op_class::SimdFloatReduceCmp            0      0.00%     80.59% # Class of executed instruction
system.switch_cpus0.op_class::SimdAes               0      0.00%     80.59% # Class of executed instruction
system.switch_cpus0.op_class::SimdAesMix            0      0.00%     80.59% # Class of executed instruction
system.switch_cpus0.op_class::SimdSha1Hash            0      0.00%     80.59% # Class of executed instruction
system.switch_cpus0.op_class::SimdSha1Hash2            0      0.00%     80.59% # Class of executed instruction
system.switch_cpus0.op_class::SimdSha256Hash            0      0.00%     80.59% # Class of executed instruction
system.switch_cpus0.op_class::SimdSha256Hash2            0      0.00%     80.59% # Class of executed instruction
system.switch_cpus0.op_class::SimdShaSigma2            0      0.00%     80.59% # Class of executed instruction
system.switch_cpus0.op_class::SimdShaSigma3            0      0.00%     80.59% # Class of executed instruction
system.switch_cpus0.op_class::SimdPredAlu            0      0.00%     80.59% # Class of executed instruction
system.switch_cpus0.op_class::MemRead          202831     13.30%     93.89% # Class of executed instruction
system.switch_cpus0.op_class::MemWrite          87165      5.71%     99.61% # Class of executed instruction
system.switch_cpus0.op_class::FloatMemRead         4720      0.31%     99.92% # Class of executed instruction
system.switch_cpus0.op_class::FloatMemWrite         1281      0.08%    100.00% # Class of executed instruction
system.switch_cpus0.op_class::IprAccess             0      0.00%    100.00% # Class of executed instruction
system.switch_cpus0.op_class::InstPrefetch            0      0.00%    100.00% # Class of executed instruction
system.switch_cpus0.op_class::total           1525201                       # Class of executed instruction
system.switch_cpus1.Branches                   224834                       # Number of branches fetched
system.switch_cpus1.committedInsts            1000001                       # Number of instructions committed
system.switch_cpus1.committedOps              2024684                       # Number of ops (including micro ops) committed
system.switch_cpus1.dtb.rdAccesses             291888                       # TLB accesses on read requests
system.switch_cpus1.dtb.rdMisses                   40                       # TLB misses on read requests
system.switch_cpus1.dtb.wrAccesses             213202                       # TLB accesses on write requests
system.switch_cpus1.dtb.wrMisses                    3                       # TLB misses on write requests
system.switch_cpus1.idle_fraction            0.000000                       # Percentage of idle cycles
system.switch_cpus1.itb.rdAccesses                  0                       # TLB accesses on read requests
system.switch_cpus1.itb.rdMisses                    0                       # TLB misses on read requests
system.switch_cpus1.itb.wrAccesses            1267697                       # TLB accesses on write requests
system.switch_cpus1.itb.wrMisses                   27                       # TLB misses on write requests
system.switch_cpus1.not_idle_fraction        1.000000                       # Percentage of non-idle cycles
system.switch_cpus1.numCycles                 5746916                       # number of cpu cycles simulated
system.switch_cpus1.numWorkItemsCompleted            0                       # number of work items this cpu completed
system.switch_cpus1.numWorkItemsStarted             0                       # number of work items this cpu started
system.switch_cpus1.num_busy_cycles      5746915.473029                       # Number of busy cycles
system.switch_cpus1.num_cc_register_reads       839766                       # number of times the CC registers were read
system.switch_cpus1.num_cc_register_writes       449805                       # number of times the CC registers were written
system.switch_cpus1.num_conditional_control_insts       102459                       # number of instructions that are conditional controls
system.switch_cpus1.num_fp_alu_accesses         16406                       # Number of float alu accesses
system.switch_cpus1.num_fp_insts                16406                       # number of float instructions
system.switch_cpus1.num_fp_register_reads        27540                       # number of times the floating registers were read
system.switch_cpus1.num_fp_register_writes        14430                       # number of times the floating registers were written
system.switch_cpus1.num_func_calls             106054                       # number of times a function call or return occured
system.switch_cpus1.num_idle_cycles          0.526971                       # Number of idle cycles
system.switch_cpus1.num_int_alu_accesses      2003876                       # Number of integer alu accesses
system.switch_cpus1.num_int_insts             2003876                       # number of integer instructions
system.switch_cpus1.num_int_register_reads      4247890                       # number of times the integer registers were read
system.switch_cpus1.num_int_register_writes      1572123                       # number of times the integer registers were written
system.switch_cpus1.num_load_insts             291886                       # Number of load instructions
system.switch_cpus1.num_mem_refs               505086                       # number of memory refs
system.switch_cpus1.num_store_insts            213200                       # Number of store instructions
system.switch_cpus1.num_vec_alu_accesses            0                       # Number of vector alu accesses
system.switch_cpus1.num_vec_insts                   0                       # number of vector instructions
system.switch_cpus1.num_vec_register_reads            0                       # number of times the vector registers were read
system.switch_cpus1.num_vec_register_writes            0                       # number of times the vector registers were written
system.switch_cpus1.op_class::No_OpClass         6797      0.34%      0.34% # Class of executed instruction
system.switch_cpus1.op_class::IntAlu          1497763     73.98%     74.31% # Class of executed instruction
system.switch_cpus1.op_class::IntMult             941      0.05%     74.36% # Class of executed instruction
system.switch_cpus1.op_class::IntDiv             2289      0.11%     74.47% # Class of executed instruction
system.switch_cpus1.op_class::FloatAdd            654      0.03%     74.50% # Class of executed instruction
system.switch_cpus1.op_class::FloatCmp              0      0.00%     74.50% # Class of executed instruction
system.switch_cpus1.op_class::FloatCvt              0      0.00%     74.50% # Class of executed instruction
system.switch_cpus1.op_class::FloatMult             0      0.00%     74.50% # Class of executed instruction
system.switch_cpus1.op_class::FloatMultAcc            0      0.00%     74.50% # Class of executed instruction
system.switch_cpus1.op_class::FloatDiv              0      0.00%     74.50% # Class of executed instruction
system.switch_cpus1.op_class::FloatMisc             0      0.00%     74.50% # Class of executed instruction
system.switch_cpus1.op_class::FloatSqrt             0      0.00%     74.50% # Class of executed instruction
system.switch_cpus1.op_class::SimdAdd               0      0.00%     74.50% # Class of executed instruction
system.switch_cpus1.op_class::SimdAddAcc            0      0.00%     74.50% # Class of executed instruction
system.switch_cpus1.op_class::SimdAlu            2624      0.13%     74.63% # Class of executed instruction
system.switch_cpus1.op_class::SimdCmp               0      0.00%     74.63% # Class of executed instruction
system.switch_cpus1.op_class::SimdCvt            2630      0.13%     74.76% # Class of executed instruction
system.switch_cpus1.op_class::SimdMisc           5900      0.29%     75.05% # Class of executed instruction
system.switch_cpus1.op_class::SimdMult              0      0.00%     75.05% # Class of executed instruction
system.switch_cpus1.op_class::SimdMultAcc            0      0.00%     75.05% # Class of executed instruction
system.switch_cpus1.op_class::SimdShift             0      0.00%     75.05% # Class of executed instruction
system.switch_cpus1.op_class::SimdShiftAcc            0      0.00%     75.05% # Class of executed instruction
system.switch_cpus1.op_class::SimdDiv               0      0.00%     75.05% # Class of executed instruction
system.switch_cpus1.op_class::SimdSqrt              0      0.00%     75.05% # Class of executed instruction
system.switch_cpus1.op_class::SimdFloatAdd            0      0.00%     75.05% # Class of executed instruction
system.switch_cpus1.op_class::SimdFloatAlu            0      0.00%     75.05% # Class of executed instruction
system.switch_cpus1.op_class::SimdFloatCmp            0      0.00%     75.05% # Class of executed instruction
system.switch_cpus1.op_class::SimdFloatCvt            0      0.00%     75.05% # Class of executed instruction
system.switch_cpus1.op_class::SimdFloatDiv            0      0.00%     75.05% # Class of executed instruction
system.switch_cpus1.op_class::SimdFloatMisc            0      0.00%     75.05% # Class of executed instruction
system.switch_cpus1.op_class::SimdFloatMult            0      0.00%     75.05% # Class of executed instruction
system.switch_cpus1.op_class::SimdFloatMultAcc            0      0.00%     75.05% # Class of executed instruction
system.switch_cpus1.op_class::SimdFloatSqrt            0      0.00%     75.05% # Class of executed instruction
system.switch_cpus1.op_class::SimdReduceAdd            0      0.00%     75.05% # Class of executed instruction
system.switch_cpus1.op_class::SimdReduceAlu            0      0.00%     75.05% # Class of executed instruction
system.switch_cpus1.op_class::SimdReduceCmp            0      0.00%     75.05% # Class of executed instruction
system.switch_cpus1.op_class::SimdFloatReduceAdd            0      0.00%     75.05% # Class of executed instruction
system.switch_cpus1.op_class::SimdFloatReduceCmp            0      0.00%     75.05% # Class of executed instruction
system.switch_cpus1.op_class::SimdAes               0      0.00%     75.05% # Class of executed instruction
system.switch_cpus1.op_class::SimdAesMix            0      0.00%     75.05% # Class of executed instruction
system.switch_cpus1.op_class::SimdSha1Hash            0      0.00%     75.05% # Class of executed instruction
system.switch_cpus1.op_class::SimdSha1Hash2            0      0.00%     75.05% # Class of executed instruction
system.switch_cpus1.op_class::SimdSha256Hash            0      0.00%     75.05% # Class of executed instruction
system.switch_cpus1.op_class::SimdSha256Hash2            0      0.00%     75.05% # Class of executed instruction
system.switch_cpus1.op_class::SimdShaSigma2            0      0.00%     75.05% # Class of executed instruction
system.switch_cpus1.op_class::SimdShaSigma3            0      0.00%     75.05% # Class of executed instruction
system.switch_cpus1.op_class::SimdPredAlu            0      0.00%     75.05% # Class of executed instruction
system.switch_cpus1.op_class::MemRead          289904     14.32%     89.37% # Class of executed instruction
system.switch_cpus1.op_class::MemWrite         212546     10.50%     99.87% # Class of executed instruction
system.switch_cpus1.op_class::FloatMemRead         1982      0.10%     99.97% # Class of executed instruction
system.switch_cpus1.op_class::FloatMemWrite          654      0.03%    100.00% # Class of executed instruction
system.switch_cpus1.op_class::IprAccess             0      0.00%    100.00% # Class of executed instruction
system.switch_cpus1.op_class::InstPrefetch            0      0.00%    100.00% # Class of executed instruction
system.switch_cpus1.op_class::total           2024684                       # Class of executed instruction
system.switch_cpus_10.branchPred.BTBCorrect            0                       # Number of correct BTB predictions (this stat may not work properly.
system.switch_cpus_10.branchPred.BTBHitPct     0.000000                       # BTB Hit Percentage
system.switch_cpus_10.branchPred.BTBHits            0                       # Number of BTB hits
system.switch_cpus_10.branchPred.BTBLookups      4080982                       # Number of BTB lookups
system.switch_cpus_10.branchPred.RASInCorrect          220                       # Number of incorrect RAS predictions.
system.switch_cpus_10.branchPred.condIncorrect       319525                       # Number of conditional branches incorrect
system.switch_cpus_10.branchPred.condPredicted      3915465                       # Number of conditional branches predicted
system.switch_cpus_10.branchPred.indirectHits      1616328                       # Number of indirect target hits.
system.switch_cpus_10.branchPred.indirectLookups      4080982                       # Number of indirect predictor lookups.
system.switch_cpus_10.branchPred.indirectMisses      2464654                       # Number of indirect misses.
system.switch_cpus_10.branchPred.lookups      4724276                       # Number of BP lookups
system.switch_cpus_10.branchPred.usedRAS       349469                       # Number of times the RAS was used to get a target.
system.switch_cpus_10.branchPredindirectMispredicted       250856                       # Number of mispredicted indirect branches.
system.switch_cpus_10.cc_regfile_reads       20998234                       # number of cc regfile reads
system.switch_cpus_10.cc_regfile_writes      14627164                       # number of cc regfile writes
system.switch_cpus_10.commit.amos                   0                       # Number of atomic instructions committed
system.switch_cpus_10.commit.branchMispredicts       319525                       # The number of times a branch was mispredicted
system.switch_cpus_10.commit.branches         2985343                       # Number of branches committed
system.switch_cpus_10.commit.bw_lim_events      2547870                       # number cycles where commit BW limit reached
system.switch_cpus_10.commit.commitNonSpecStalls         3832                       # The number of times commit has been forced to stall to communicate backwards
system.switch_cpus_10.commit.commitSquashedInsts      9015603                       # The number of squashed insts skipped by commit
system.switch_cpus_10.commit.committedInsts     28279604                       # Number of instructions committed
system.switch_cpus_10.commit.committedOps     44925981                       # Number of ops (including micro ops) committed
system.switch_cpus_10.commit.committed_per_cycle::samples     57533778                       # Number of insts commited each cycle
system.switch_cpus_10.commit.committed_per_cycle::mean     0.780863                       # Number of insts commited each cycle
system.switch_cpus_10.commit.committed_per_cycle::stdev     1.919242                       # Number of insts commited each cycle
system.switch_cpus_10.commit.committed_per_cycle::underflows            0      0.00%      0.00% # Number of insts commited each cycle
system.switch_cpus_10.commit.committed_per_cycle::0     44513292     77.37%     77.37% # Number of insts commited each cycle
system.switch_cpus_10.commit.committed_per_cycle::1      4624802      8.04%     85.41% # Number of insts commited each cycle
system.switch_cpus_10.commit.committed_per_cycle::2      1860930      3.23%     88.64% # Number of insts commited each cycle
system.switch_cpus_10.commit.committed_per_cycle::3      1783117      3.10%     91.74% # Number of insts commited each cycle
system.switch_cpus_10.commit.committed_per_cycle::4       991531      1.72%     93.46% # Number of insts commited each cycle
system.switch_cpus_10.commit.committed_per_cycle::5       711874      1.24%     94.70% # Number of insts commited each cycle
system.switch_cpus_10.commit.committed_per_cycle::6       181020      0.31%     95.02% # Number of insts commited each cycle
system.switch_cpus_10.commit.committed_per_cycle::7       319342      0.56%     95.57% # Number of insts commited each cycle
system.switch_cpus_10.commit.committed_per_cycle::8      2547870      4.43%    100.00% # Number of insts commited each cycle
system.switch_cpus_10.commit.committed_per_cycle::overflows            0      0.00%    100.00% # Number of insts commited each cycle
system.switch_cpus_10.commit.committed_per_cycle::min_value            0                       # Number of insts commited each cycle
system.switch_cpus_10.commit.committed_per_cycle::max_value            8                       # Number of insts commited each cycle
system.switch_cpus_10.commit.committed_per_cycle::total     57533778                       # Number of insts commited each cycle
system.switch_cpus_10.commit.fp_insts        14844612                       # Number of committed floating point instructions.
system.switch_cpus_10.commit.function_calls       238166                       # Number of function calls committed.
system.switch_cpus_10.commit.int_insts       35748321                       # Number of committed integer instructions.
system.switch_cpus_10.commit.loads            9444992                       # Number of loads committed
system.switch_cpus_10.commit.membars             2184                       # Number of memory barriers committed
system.switch_cpus_10.commit.op_class_0::No_OpClass       111698      0.25%      0.25% # Class of committed instruction
system.switch_cpus_10.commit.op_class_0::IntAlu     23269861     51.80%     52.04% # Class of committed instruction
system.switch_cpus_10.commit.op_class_0::IntMult       462637      1.03%     53.07% # Class of committed instruction
system.switch_cpus_10.commit.op_class_0::IntDiv         9587      0.02%     53.10% # Class of committed instruction
system.switch_cpus_10.commit.op_class_0::FloatAdd         5571      0.01%     53.11% # Class of committed instruction
system.switch_cpus_10.commit.op_class_0::FloatCmp            0      0.00%     53.11% # Class of committed instruction
system.switch_cpus_10.commit.op_class_0::FloatCvt          112      0.00%     53.11% # Class of committed instruction
system.switch_cpus_10.commit.op_class_0::FloatMult            0      0.00%     53.11% # Class of committed instruction
system.switch_cpus_10.commit.op_class_0::FloatMultAcc            0      0.00%     53.11% # Class of committed instruction
system.switch_cpus_10.commit.op_class_0::FloatDiv            0      0.00%     53.11% # Class of committed instruction
system.switch_cpus_10.commit.op_class_0::FloatMisc            0      0.00%     53.11% # Class of committed instruction
system.switch_cpus_10.commit.op_class_0::FloatSqrt            0      0.00%     53.11% # Class of committed instruction
system.switch_cpus_10.commit.op_class_0::SimdAdd        17310      0.04%     53.15% # Class of committed instruction
system.switch_cpus_10.commit.op_class_0::SimdAddAcc            0      0.00%     53.15% # Class of committed instruction
system.switch_cpus_10.commit.op_class_0::SimdAlu       182408      0.41%     53.55% # Class of committed instruction
system.switch_cpus_10.commit.op_class_0::SimdCmp          404      0.00%     53.55% # Class of committed instruction
system.switch_cpus_10.commit.op_class_0::SimdCvt       117238      0.26%     53.81% # Class of committed instruction
system.switch_cpus_10.commit.op_class_0::SimdMisc       808600      1.80%     55.61% # Class of committed instruction
system.switch_cpus_10.commit.op_class_0::SimdMult            0      0.00%     55.61% # Class of committed instruction
system.switch_cpus_10.commit.op_class_0::SimdMultAcc            0      0.00%     55.61% # Class of committed instruction
system.switch_cpus_10.commit.op_class_0::SimdShift         3422      0.01%     55.62% # Class of committed instruction
system.switch_cpus_10.commit.op_class_0::SimdShiftAcc            0      0.00%     55.62% # Class of committed instruction
system.switch_cpus_10.commit.op_class_0::SimdDiv            0      0.00%     55.62% # Class of committed instruction
system.switch_cpus_10.commit.op_class_0::SimdSqrt            0      0.00%     55.62% # Class of committed instruction
system.switch_cpus_10.commit.op_class_0::SimdFloatAdd      1830659      4.07%     59.70% # Class of committed instruction
system.switch_cpus_10.commit.op_class_0::SimdFloatAlu            0      0.00%     59.70% # Class of committed instruction
system.switch_cpus_10.commit.op_class_0::SimdFloatCmp            0      0.00%     59.70% # Class of committed instruction
system.switch_cpus_10.commit.op_class_0::SimdFloatCvt      2975225      6.62%     66.32% # Class of committed instruction
system.switch_cpus_10.commit.op_class_0::SimdFloatDiv      1372794      3.06%     69.38% # Class of committed instruction
system.switch_cpus_10.commit.op_class_0::SimdFloatMisc            0      0.00%     69.38% # Class of committed instruction
system.switch_cpus_10.commit.op_class_0::SimdFloatMult      2059218      4.58%     73.96% # Class of committed instruction
system.switch_cpus_10.commit.op_class_0::SimdFloatMultAcc            0      0.00%     73.96% # Class of committed instruction
system.switch_cpus_10.commit.op_class_0::SimdFloatSqrt       228798      0.51%     74.47% # Class of committed instruction
system.switch_cpus_10.commit.op_class_0::SimdReduceAdd            0      0.00%     74.47% # Class of committed instruction
system.switch_cpus_10.commit.op_class_0::SimdReduceAlu            0      0.00%     74.47% # Class of committed instruction
system.switch_cpus_10.commit.op_class_0::SimdReduceCmp            0      0.00%     74.47% # Class of committed instruction
system.switch_cpus_10.commit.op_class_0::SimdFloatReduceAdd            0      0.00%     74.47% # Class of committed instruction
system.switch_cpus_10.commit.op_class_0::SimdFloatReduceCmp            0      0.00%     74.47% # Class of committed instruction
system.switch_cpus_10.commit.op_class_0::SimdAes            0      0.00%     74.47% # Class of committed instruction
system.switch_cpus_10.commit.op_class_0::SimdAesMix            0      0.00%     74.47% # Class of committed instruction
system.switch_cpus_10.commit.op_class_0::SimdSha1Hash            0      0.00%     74.47% # Class of committed instruction
system.switch_cpus_10.commit.op_class_0::SimdSha1Hash2            0      0.00%     74.47% # Class of committed instruction
system.switch_cpus_10.commit.op_class_0::SimdSha256Hash            0      0.00%     74.47% # Class of committed instruction
system.switch_cpus_10.commit.op_class_0::SimdSha256Hash2            0      0.00%     74.47% # Class of committed instruction
system.switch_cpus_10.commit.op_class_0::SimdShaSigma2            0      0.00%     74.47% # Class of committed instruction
system.switch_cpus_10.commit.op_class_0::SimdShaSigma3            0      0.00%     74.47% # Class of committed instruction
system.switch_cpus_10.commit.op_class_0::SimdPredAlu            0      0.00%     74.47% # Class of committed instruction
system.switch_cpus_10.commit.op_class_0::MemRead      5410042     12.04%     86.51% # Class of committed instruction
system.switch_cpus_10.commit.op_class_0::MemWrite      1059552      2.36%     88.87% # Class of committed instruction
system.switch_cpus_10.commit.op_class_0::FloatMemRead      4034950      8.98%     97.85% # Class of committed instruction
system.switch_cpus_10.commit.op_class_0::FloatMemWrite       965895      2.15%    100.00% # Class of committed instruction
system.switch_cpus_10.commit.op_class_0::IprAccess            0      0.00%    100.00% # Class of committed instruction
system.switch_cpus_10.commit.op_class_0::InstPrefetch            0      0.00%    100.00% # Class of committed instruction
system.switch_cpus_10.commit.op_class_0::total     44925981                       # Class of committed instruction
system.switch_cpus_10.commit.refs            11470439                       # Number of memory references committed
system.switch_cpus_10.commit.swp_count              0                       # Number of s/w prefetches committed
system.switch_cpus_10.commit.vec_insts              0                       # Number of committed Vector instructions.
system.switch_cpus_10.committedInsts         28279604                       # Number of Instructions Simulated
system.switch_cpus_10.committedOps           44925981                       # Number of Ops (including micro ops) Simulated
system.switch_cpus_10.cpi                    2.110582                       # CPI: Cycles Per Instruction
system.switch_cpus_10.cpi_total              2.110582                       # CPI: Total CPI of All Threads
system.switch_cpus_10.decode.BlockedCycles     42678073                       # Number of cycles decode is blocked
system.switch_cpus_10.decode.DecodedInsts     57653132                       # Number of instructions handled by decode
system.switch_cpus_10.decode.IdleCycles       7363863                       # Number of cycles decode is idle
system.switch_cpus_10.decode.RunCycles        7669903                       # Number of cycles decode is running
system.switch_cpus_10.decode.SquashCycles       330612                       # Number of cycles decode is squashing
system.switch_cpus_10.decode.UnblockCycles       872862                       # Number of cycles decode is unblocking
system.switch_cpus_10.dtb.rdAccesses         10300978                       # TLB accesses on read requests
system.switch_cpus_10.dtb.rdMisses               8831                       # TLB misses on read requests
system.switch_cpus_10.dtb.wrAccesses          2568264                       # TLB accesses on write requests
system.switch_cpus_10.dtb.wrMisses               3123                       # TLB misses on write requests
system.switch_cpus_10.fetch.Branches          4724276                       # Number of branches that fetch encountered
system.switch_cpus_10.fetch.CacheLines        3739813                       # Number of cache lines fetched
system.switch_cpus_10.fetch.Cycles           50298702                       # Number of cycles fetch has run and was not squashing or blocked
system.switch_cpus_10.fetch.IcacheSquashes       135954                       # Number of outstanding Icache misses that were squashed
system.switch_cpus_10.fetch.IcacheWaitRetryStallCycles         1948                       # Number of stall cycles due to full MSHR
system.switch_cpus_10.fetch.Insts            35511958                       # Number of instructions fetch has processed
system.switch_cpus_10.fetch.MiscStallCycles         1395                       # Number of cycles fetch has spent waiting on interrupts, or bad addresses, or out of MSHRs
system.switch_cpus_10.fetch.SquashCycles       661224                       # Number of cycles fetch has spent squashing
system.switch_cpus_10.fetch.branchRate       0.079152                       # Number of branch fetches per cycle
system.switch_cpus_10.fetch.icacheStallCycles      8282659                       # Number of cycles fetch is stalled on an Icache miss
system.switch_cpus_10.fetch.predictedBranches      1965797                       # Number of branches that fetch has predicted taken
system.switch_cpus_10.fetch.rate             0.594975                       # Number of inst fetches per cycle
system.switch_cpus_10.fetch.rateDist::samples     58915316                       # Number of instructions fetched each cycle (Total)
system.switch_cpus_10.fetch.rateDist::mean     1.011542                       # Number of instructions fetched each cycle (Total)
system.switch_cpus_10.fetch.rateDist::stdev     2.501649                       # Number of instructions fetched each cycle (Total)
system.switch_cpus_10.fetch.rateDist::underflows            0      0.00%      0.00% # Number of instructions fetched each cycle (Total)
system.switch_cpus_10.fetch.rateDist::0      49490518     84.00%     84.00% # Number of instructions fetched each cycle (Total)
system.switch_cpus_10.fetch.rateDist::1        332435      0.56%     84.57% # Number of instructions fetched each cycle (Total)
system.switch_cpus_10.fetch.rateDist::2        625970      1.06%     85.63% # Number of instructions fetched each cycle (Total)
system.switch_cpus_10.fetch.rateDist::3       1042496      1.77%     87.40% # Number of instructions fetched each cycle (Total)
system.switch_cpus_10.fetch.rateDist::4        500081      0.85%     88.25% # Number of instructions fetched each cycle (Total)
system.switch_cpus_10.fetch.rateDist::5        404701      0.69%     88.93% # Number of instructions fetched each cycle (Total)
system.switch_cpus_10.fetch.rateDist::6        414261      0.70%     89.64% # Number of instructions fetched each cycle (Total)
system.switch_cpus_10.fetch.rateDist::7        464794      0.79%     90.43% # Number of instructions fetched each cycle (Total)
system.switch_cpus_10.fetch.rateDist::8       5640060      9.57%    100.00% # Number of instructions fetched each cycle (Total)
system.switch_cpus_10.fetch.rateDist::overflows            0      0.00%    100.00% # Number of instructions fetched each cycle (Total)
system.switch_cpus_10.fetch.rateDist::min_value            0                       # Number of instructions fetched each cycle (Total)
system.switch_cpus_10.fetch.rateDist::max_value            8                       # Number of instructions fetched each cycle (Total)
system.switch_cpus_10.fetch.rateDist::total     58915316                       # Number of instructions fetched each cycle (Total)
system.switch_cpus_10.fp_regfile_reads       25556310                       # number of floating regfile reads
system.switch_cpus_10.fp_regfile_writes      13780627                       # number of floating regfile writes
system.switch_cpus_10.idleCycles               771114                       # Total number of cycles that the CPU has spent unscheduled due to idling
system.switch_cpus_10.iew.branchMispredicts       419987                       # Number of branch mispredicts detected at execute
system.switch_cpus_10.iew.exec_branches       3432852                       # Number of branches executed
system.switch_cpus_10.iew.exec_nop                  0                       # number of nop insts executed
system.switch_cpus_10.iew.exec_rate          0.849191                       # Inst execution rate
system.switch_cpus_10.iew.exec_refs          12864012                       # number of memory reference insts executed
system.switch_cpus_10.iew.exec_stores         2567415                       # Number of stores executed
system.switch_cpus_10.iew.exec_swp                  0                       # number of swp insts executed
system.switch_cpus_10.iew.iewBlockCycles      1451394                       # Number of cycles IEW is blocking
system.switch_cpus_10.iew.iewDispLoadInsts     10843111                       # Number of dispatched load instructions
system.switch_cpus_10.iew.iewDispNonSpecInsts         3601                       # Number of dispatched non-speculative instructions
system.switch_cpus_10.iew.iewDispSquashedInsts       156195                       # Number of squashed instructions skipped by dispatch
system.switch_cpus_10.iew.iewDispStoreInsts      2907706                       # Number of dispatched store instructions
system.switch_cpus_10.iew.iewDispatchedInsts     54222107                       # Number of instructions dispatched to IQ
system.switch_cpus_10.iew.iewExecLoadInsts     10296597                       # Number of load instructions executed
system.switch_cpus_10.iew.iewExecSquashedInsts       655073                       # Number of squashed instructions skipped in execute
system.switch_cpus_10.iew.iewExecutedInsts     50685154                       # Number of executed instructions
system.switch_cpus_10.iew.iewIQFullEvents         5847                       # Number of times the IQ has become full, causing a stall
system.switch_cpus_10.iew.iewIdleCycles             0                       # Number of cycles IEW is idle
system.switch_cpus_10.iew.iewLSQFullEvents     10122749                       # Number of times the LSQ has become full, causing a stall
system.switch_cpus_10.iew.iewSquashCycles       330612                       # Number of cycles IEW is squashing
system.switch_cpus_10.iew.iewUnblockCycles     10130400                       # Number of cycles IEW is unblocking
system.switch_cpus_10.iew.lsq.thread0.blockedLoads            0                       # Number of blocked loads due to partial load-store forwarding
system.switch_cpus_10.iew.lsq.thread0.cacheBlocked          373                       # Number of times an access to memory failed due to the cache being blocked
system.switch_cpus_10.iew.lsq.thread0.forwLoads       660971                       # Number of loads that had data forwarded from stores
system.switch_cpus_10.iew.lsq.thread0.ignoredResponses         3193                       # Number of memory responses ignored because the instruction is squashed
system.switch_cpus_10.iew.lsq.thread0.invAddrLoads            0                       # Number of loads ignored due to an invalid address
system.switch_cpus_10.iew.lsq.thread0.invAddrSwpfs            0                       # Number of software prefetches ignored due to an invalid address
system.switch_cpus_10.iew.lsq.thread0.memOrderViolation         1554                       # Number of memory ordering violations
system.switch_cpus_10.iew.lsq.thread0.rescheduledLoads          792                       # Number of loads that were rescheduled
system.switch_cpus_10.iew.lsq.thread0.squashedLoads      1398119                       # Number of loads squashed
system.switch_cpus_10.iew.lsq.thread0.squashedStores       882259                       # Number of stores squashed
system.switch_cpus_10.iew.memOrderViolationEvents         1554                       # Number of memory order violations
system.switch_cpus_10.iew.predictedNotTakenIncorrect       366918                       # Number of branches that were predicted not taken incorrectly
system.switch_cpus_10.iew.predictedTakenIncorrect        53069                       # Number of branches that were predicted taken incorrectly
system.switch_cpus_10.iew.wb_consumers       69175209                       # num instructions consuming a value
system.switch_cpus_10.iew.wb_count           50256373                       # cumulative count of insts written-back
system.switch_cpus_10.iew.wb_fanout          0.583120                       # average fanout of values written-back
system.switch_cpus_10.iew.wb_producers       40337422                       # num instructions producing a value
system.switch_cpus_10.iew.wb_rate            0.842007                       # insts written-back per cycle
system.switch_cpus_10.iew.wb_sent            50414912                       # cumulative count of insts sent to commit
system.switch_cpus_10.int_regfile_reads      65617770                       # number of integer regfile reads
system.switch_cpus_10.int_regfile_writes     30649668                       # number of integer regfile writes
system.switch_cpus_10.ipc                    0.473803                       # IPC: Instructions Per Cycle
system.switch_cpus_10.ipc_total              0.473803                       # IPC: Total IPC of All Threads
system.switch_cpus_10.iq.FU_type_0::No_OpClass       297757      0.58%      0.58% # Type of FU issued
system.switch_cpus_10.iq.FU_type_0::IntAlu     27854478     54.25%     54.83% # Type of FU issued
system.switch_cpus_10.iq.FU_type_0::IntMult       466254      0.91%     55.74% # Type of FU issued
system.switch_cpus_10.iq.FU_type_0::IntDiv        10129      0.02%     55.76% # Type of FU issued
system.switch_cpus_10.iq.FU_type_0::FloatAdd         8992      0.02%     55.78% # Type of FU issued
system.switch_cpus_10.iq.FU_type_0::FloatCmp            0      0.00%     55.78% # Type of FU issued
system.switch_cpus_10.iq.FU_type_0::FloatCvt          388      0.00%     55.78% # Type of FU issued
system.switch_cpus_10.iq.FU_type_0::FloatMult            0      0.00%     55.78% # Type of FU issued
system.switch_cpus_10.iq.FU_type_0::FloatMultAcc            0      0.00%     55.78% # Type of FU issued
system.switch_cpus_10.iq.FU_type_0::FloatDiv            0      0.00%     55.78% # Type of FU issued
system.switch_cpus_10.iq.FU_type_0::FloatMisc            0      0.00%     55.78% # Type of FU issued
system.switch_cpus_10.iq.FU_type_0::FloatSqrt            0      0.00%     55.78% # Type of FU issued
system.switch_cpus_10.iq.FU_type_0::SimdAdd        19028      0.04%     55.82% # Type of FU issued
system.switch_cpus_10.iq.FU_type_0::SimdAddAcc            0      0.00%     55.82% # Type of FU issued
system.switch_cpus_10.iq.FU_type_0::SimdAlu       190497      0.37%     56.19% # Type of FU issued
system.switch_cpus_10.iq.FU_type_0::SimdCmp          577      0.00%     56.19% # Type of FU issued
system.switch_cpus_10.iq.FU_type_0::SimdCvt       122742      0.24%     56.43% # Type of FU issued
system.switch_cpus_10.iq.FU_type_0::SimdMisc       814139      1.59%     58.01% # Type of FU issued
system.switch_cpus_10.iq.FU_type_0::SimdMult            0      0.00%     58.01% # Type of FU issued
system.switch_cpus_10.iq.FU_type_0::SimdMultAcc            0      0.00%     58.01% # Type of FU issued
system.switch_cpus_10.iq.FU_type_0::SimdShift         5599      0.01%     58.03% # Type of FU issued
system.switch_cpus_10.iq.FU_type_0::SimdShiftAcc            0      0.00%     58.03% # Type of FU issued
system.switch_cpus_10.iq.FU_type_0::SimdDiv            0      0.00%     58.03% # Type of FU issued
system.switch_cpus_10.iq.FU_type_0::SimdSqrt            0      0.00%     58.03% # Type of FU issued
system.switch_cpus_10.iq.FU_type_0::SimdFloatAdd      1832068      3.57%     61.59% # Type of FU issued
system.switch_cpus_10.iq.FU_type_0::SimdFloatAlu            0      0.00%     61.59% # Type of FU issued
system.switch_cpus_10.iq.FU_type_0::SimdFloatCmp            0      0.00%     61.59% # Type of FU issued
system.switch_cpus_10.iq.FU_type_0::SimdFloatCvt      2989032      5.82%     67.42% # Type of FU issued
system.switch_cpus_10.iq.FU_type_0::SimdFloatDiv      1378302      2.68%     70.10% # Type of FU issued
system.switch_cpus_10.iq.FU_type_0::SimdFloatMisc            0      0.00%     70.10% # Type of FU issued
system.switch_cpus_10.iq.FU_type_0::SimdFloatMult      2061998      4.02%     74.12% # Type of FU issued
system.switch_cpus_10.iq.FU_type_0::SimdFloatMultAcc            0      0.00%     74.12% # Type of FU issued
system.switch_cpus_10.iq.FU_type_0::SimdFloatSqrt       228798      0.45%     74.56% # Type of FU issued
system.switch_cpus_10.iq.FU_type_0::SimdReduceAdd            0      0.00%     74.56% # Type of FU issued
system.switch_cpus_10.iq.FU_type_0::SimdReduceAlu            0      0.00%     74.56% # Type of FU issued
system.switch_cpus_10.iq.FU_type_0::SimdReduceCmp            0      0.00%     74.56% # Type of FU issued
system.switch_cpus_10.iq.FU_type_0::SimdFloatReduceAdd            0      0.00%     74.56% # Type of FU issued
system.switch_cpus_10.iq.FU_type_0::SimdFloatReduceCmp            0      0.00%     74.56% # Type of FU issued
system.switch_cpus_10.iq.FU_type_0::SimdAes            0      0.00%     74.56% # Type of FU issued
system.switch_cpus_10.iq.FU_type_0::SimdAesMix            0      0.00%     74.56% # Type of FU issued
system.switch_cpus_10.iq.FU_type_0::SimdSha1Hash            0      0.00%     74.56% # Type of FU issued
system.switch_cpus_10.iq.FU_type_0::SimdSha1Hash2            0      0.00%     74.56% # Type of FU issued
system.switch_cpus_10.iq.FU_type_0::SimdSha256Hash            0      0.00%     74.56% # Type of FU issued
system.switch_cpus_10.iq.FU_type_0::SimdSha256Hash2            0      0.00%     74.56% # Type of FU issued
system.switch_cpus_10.iq.FU_type_0::SimdShaSigma2            0      0.00%     74.56% # Type of FU issued
system.switch_cpus_10.iq.FU_type_0::SimdShaSigma3            0      0.00%     74.56% # Type of FU issued
system.switch_cpus_10.iq.FU_type_0::SimdPredAlu            0      0.00%     74.56% # Type of FU issued
system.switch_cpus_10.iq.FU_type_0::MemRead      6145709     11.97%     86.53% # Type of FU issued
system.switch_cpus_10.iq.FU_type_0::MemWrite      1479132      2.88%     89.41% # Type of FU issued
system.switch_cpus_10.iq.FU_type_0::FloatMemRead      4270880      8.32%     97.73% # Type of FU issued
system.switch_cpus_10.iq.FU_type_0::FloatMemWrite      1163728      2.27%    100.00% # Type of FU issued
system.switch_cpus_10.iq.FU_type_0::IprAccess            0      0.00%    100.00% # Type of FU issued
system.switch_cpus_10.iq.FU_type_0::InstPrefetch            0      0.00%    100.00% # Type of FU issued
system.switch_cpus_10.iq.FU_type_0::total     51340227                       # Type of FU issued
system.switch_cpus_10.iq.fp_alu_accesses     15717770                       # Number of floating point alu accesses
system.switch_cpus_10.iq.fp_inst_queue_reads     31059228                       # Number of floating instruction queue reads
system.switch_cpus_10.iq.fp_inst_queue_wakeup_accesses     15258331                       # Number of floating instruction queue wakeup accesses
system.switch_cpus_10.iq.fp_inst_queue_writes     16093944                       # Number of floating instruction queue writes
system.switch_cpus_10.iq.fu_busy_cnt           893617                       # FU busy when requested
system.switch_cpus_10.iq.fu_busy_rate        0.017406                       # FU busy rate (busy events/executed inst)
system.switch_cpus_10.iq.fu_full::No_OpClass            0      0.00%      0.00% # attempts to use FU when none available
system.switch_cpus_10.iq.fu_full::IntAlu       263985     29.54%     29.54% # attempts to use FU when none available
system.switch_cpus_10.iq.fu_full::IntMult            0      0.00%     29.54% # attempts to use FU when none available
system.switch_cpus_10.iq.fu_full::IntDiv            0      0.00%     29.54% # attempts to use FU when none available
system.switch_cpus_10.iq.fu_full::FloatAdd            0      0.00%     29.54% # attempts to use FU when none available
system.switch_cpus_10.iq.fu_full::FloatCmp            0      0.00%     29.54% # attempts to use FU when none available
system.switch_cpus_10.iq.fu_full::FloatCvt            0      0.00%     29.54% # attempts to use FU when none available
system.switch_cpus_10.iq.fu_full::FloatMult            0      0.00%     29.54% # attempts to use FU when none available
system.switch_cpus_10.iq.fu_full::FloatMultAcc            0      0.00%     29.54% # attempts to use FU when none available
system.switch_cpus_10.iq.fu_full::FloatDiv            0      0.00%     29.54% # attempts to use FU when none available
system.switch_cpus_10.iq.fu_full::FloatMisc            0      0.00%     29.54% # attempts to use FU when none available
system.switch_cpus_10.iq.fu_full::FloatSqrt            0      0.00%     29.54% # attempts to use FU when none available
system.switch_cpus_10.iq.fu_full::SimdAdd            1      0.00%     29.54% # attempts to use FU when none available
system.switch_cpus_10.iq.fu_full::SimdAddAcc            0      0.00%     29.54% # attempts to use FU when none available
system.switch_cpus_10.iq.fu_full::SimdAlu        18700      2.09%     31.63% # attempts to use FU when none available
system.switch_cpus_10.iq.fu_full::SimdCmp            1      0.00%     31.63% # attempts to use FU when none available
system.switch_cpus_10.iq.fu_full::SimdCvt          323      0.04%     31.67% # attempts to use FU when none available
system.switch_cpus_10.iq.fu_full::SimdMisc        35060      3.92%     35.59% # attempts to use FU when none available
system.switch_cpus_10.iq.fu_full::SimdMult            0      0.00%     35.59% # attempts to use FU when none available
system.switch_cpus_10.iq.fu_full::SimdMultAcc            0      0.00%     35.59% # attempts to use FU when none available
system.switch_cpus_10.iq.fu_full::SimdShift            5      0.00%     35.59% # attempts to use FU when none available
system.switch_cpus_10.iq.fu_full::SimdShiftAcc            0      0.00%     35.59% # attempts to use FU when none available
system.switch_cpus_10.iq.fu_full::SimdDiv            0      0.00%     35.59% # attempts to use FU when none available
system.switch_cpus_10.iq.fu_full::SimdSqrt            0      0.00%     35.59% # attempts to use FU when none available
system.switch_cpus_10.iq.fu_full::SimdFloatAdd            0      0.00%     35.59% # attempts to use FU when none available
system.switch_cpus_10.iq.fu_full::SimdFloatAlu            0      0.00%     35.59% # attempts to use FU when none available
system.switch_cpus_10.iq.fu_full::SimdFloatCmp            0      0.00%     35.59% # attempts to use FU when none available
system.switch_cpus_10.iq.fu_full::SimdFloatCvt            0      0.00%     35.59% # attempts to use FU when none available
system.switch_cpus_10.iq.fu_full::SimdFloatDiv            0      0.00%     35.59% # attempts to use FU when none available
system.switch_cpus_10.iq.fu_full::SimdFloatMisc            0      0.00%     35.59% # attempts to use FU when none available
system.switch_cpus_10.iq.fu_full::SimdFloatMult            0      0.00%     35.59% # attempts to use FU when none available
system.switch_cpus_10.iq.fu_full::SimdFloatMultAcc            0      0.00%     35.59% # attempts to use FU when none available
[...]
system.cpu1.l2cache.ReadSharedReq_mshr_miss_rate::.switch_cpus_11.data     0.521494                       # mshr miss rate for ReadSharedReq accesses
system.cpu1.l2cache.ReadSharedReq_mshr_miss_rate::total     0.530927                       # mshr miss rate for ReadSharedReq accesses
system.cpu1.l2cache.ReadSharedReq_avg_mshr_miss_latency::.switch_cpus1.data 122977.090909                       # average ReadSharedReq mshr miss latency
system.cpu1.l2cache.ReadSharedReq_avg_mshr_miss_latency::.switch_cpus_11.data 121735.022377                       # average ReadSharedReq mshr miss latency
system.cpu1.l2cache.ReadSharedReq_avg_mshr_miss_latency::total 121785.062429                       # average ReadSharedReq mshr miss latency
system.cpu1.l2cache.tags.pwrStateResidencyTicks::UNDEFINED 1320637415400                       # Cumulative time (in ticks) in various power states
system.cpu1.l2cache.tags.tagsinuse          76.669758                       # Cycle average of tags in use
system.cpu1.l2cache.tags.total_refs            113155                       # Total number of references to valid blocks.
system.cpu1.l2cache.tags.sampled_refs           30345                       # Sample count of references to valid blocks.
system.cpu1.l2cache.tags.avg_refs            3.728950                       # Average number of references to valid blocks.
system.cpu1.l2cache.tags.warmup_cycle    1293351708033                       # Cycle when the warmup percentage was hit.
system.cpu1.l2cache.tags.occ_blocks::.cpu1.inst     0.003772                       # Average occupied blocks per requestor
system.cpu1.l2cache.tags.occ_blocks::.cpu1.data     0.020661                       # Average occupied blocks per requestor
system.cpu1.l2cache.tags.occ_blocks::.switch_cpus1.inst     0.704837                       # Average occupied blocks per requestor
system.cpu1.l2cache.tags.occ_blocks::.switch_cpus1.data    11.393232                       # Average occupied blocks per requestor
system.cpu1.l2cache.tags.occ_blocks::.switch_cpus_11.inst     0.186273                       # Average occupied blocks per requestor
system.cpu1.l2cache.tags.occ_blocks::.switch_cpus_11.data    64.360984                       # Average occupied blocks per requestor
system.cpu1.l2cache.tags.occ_percent::.cpu1.inst     0.000001                       # Average percentage of cache occupancy
system.cpu1.l2cache.tags.occ_percent::.cpu1.data     0.000005                       # Average percentage of cache occupancy
system.cpu1.l2cache.tags.occ_percent::.switch_cpus1.inst     0.000172                       # Average percentage of cache occupancy
system.cpu1.l2cache.tags.occ_percent::.switch_cpus1.data     0.002782                       # Average percentage of cache occupancy
system.cpu1.l2cache.tags.occ_percent::.switch_cpus_11.inst     0.000045                       # Average percentage of cache occupancy
system.cpu1.l2cache.tags.occ_percent::.switch_cpus_11.data     0.015713                       # Average percentage of cache occupancy
system.cpu1.l2cache.tags.occ_percent::total     0.018718                       # Average percentage of cache occupancy
system.cpu1.l2cache.tags.occ_task_id_blocks::1024         4096                       # Occupied blocks per task id
system.cpu1.l2cache.tags.age_task_id_blocks_1024::0            1                       # Occupied blocks per task id
system.cpu1.l2cache.tags.age_task_id_blocks_1024::1           78                       # Occupied blocks per task id
system.cpu1.l2cache.tags.age_task_id_blocks_1024::2         1043                       # Occupied blocks per task id
system.cpu1.l2cache.tags.age_task_id_blocks_1024::3         2465                       # Occupied blocks per task id
system.cpu1.l2cache.tags.age_task_id_blocks_1024::4          509                       # Occupied blocks per task id
system.cpu1.l2cache.tags.occ_task_id_percent::1024            1                       # Percentage of cache occupancy per task id
system.cpu1.l2cache.tags.tag_accesses         1840937                       # Number of tag accesses
system.cpu1.l2cache.tags.data_accesses        1840937                       # Number of data accesses
system.cpu1.toL2Bus.pwrStateResidencyTicks::UNDEFINED 1320637415400                       # Cumulative time (in ticks) in various power states
system.cpu1.toL2Bus.trans_dist::ReadResp        56855                       # Transaction distribution
system.cpu1.toL2Bus.trans_dist::WritebackDirty          186                       # Transaction distribution
system.cpu1.toL2Bus.trans_dist::CleanEvict        82502                       # Transaction distribution
system.cpu1.toL2Bus.trans_dist::ReadExReq          148                       # Transaction distribution
system.cpu1.toL2Bus.trans_dist::ReadExResp          148                       # Transaction distribution
system.cpu1.toL2Bus.trans_dist::ReadCleanReq          286                       # Transaction distribution
system.cpu1.toL2Bus.trans_dist::ReadSharedReq        56569                       # Transaction distribution
system.cpu1.toL2Bus.pkt_count_system.cpu1.icache.mem_side::system.cpu1.l2cache.cpu_side          572                       # Packet count per connected master and slave (bytes)
system.cpu1.toL2Bus.pkt_count_system.cpu1.dcache.mem_side::system.cpu1.l2cache.cpu_side       169639                       # Packet count per connected master and slave (bytes)
system.cpu1.toL2Bus.pkt_count::total           170211                       # Packet count per connected master and slave (bytes)
system.cpu1.toL2Bus.pkt_size_system.cpu1.icache.mem_side::system.cpu1.l2cache.cpu_side        18304                       # Cumulative packet size per connected master and slave (bytes)
system.cpu1.toL2Bus.pkt_size_system.cpu1.dcache.mem_side::system.cpu1.l2cache.cpu_side      3641280                       # Cumulative packet size per connected master and slave (bytes)
system.cpu1.toL2Bus.pkt_size::total           3659584                       # Cumulative packet size per connected master and slave (bytes)
system.cpu1.toL2Bus.snoops                      26483                       # Total snoops (count)
system.cpu1.toL2Bus.snoopTraffic                  512                       # Total snoop traffic (bytes)
system.cpu1.toL2Bus.snoop_fanout::samples        83486                       # Request fanout histogram
system.cpu1.toL2Bus.snoop_fanout::mean       0.006540                       # Request fanout histogram
system.cpu1.toL2Bus.snoop_fanout::stdev      0.080606                       # Request fanout histogram
system.cpu1.toL2Bus.snoop_fanout::underflows            0      0.00%      0.00% # Request fanout histogram
system.cpu1.toL2Bus.snoop_fanout::0             82940     99.35%     99.35% # Request fanout histogram
system.cpu1.toL2Bus.snoop_fanout::1               546      0.65%    100.00% # Request fanout histogram
system.cpu1.toL2Bus.snoop_fanout::2                 0      0.00%    100.00% # Request fanout histogram
system.cpu1.toL2Bus.snoop_fanout::3                 0      0.00%    100.00% # Request fanout histogram
system.cpu1.toL2Bus.snoop_fanout::4                 0      0.00%    100.00% # Request fanout histogram
system.cpu1.toL2Bus.snoop_fanout::overflows            0      0.00%    100.00% # Request fanout histogram
system.cpu1.toL2Bus.snoop_fanout::min_value            0                       # Request fanout histogram
system.cpu1.toL2Bus.snoop_fanout::max_value            1                       # Request fanout histogram
system.cpu1.toL2Bus.snoop_fanout::total         83486                       # Request fanout histogram
system.cpu1.toL2Bus.reqLayer0.occupancy      47355354                       # Layer occupancy (ticks)
system.cpu1.toL2Bus.reqLayer0.utilization          0.2                       # Layer utilization (%)
system.cpu1.toL2Bus.respLayer1.occupancy     70951716                       # Layer occupancy (ticks)
system.cpu1.toL2Bus.respLayer1.utilization          0.3                       # Layer utilization (%)
system.cpu1.toL2Bus.respLayer0.occupancy       356535                       # Layer occupancy (ticks)
system.cpu1.toL2Bus.respLayer0.utilization          0.0                       # Layer utilization (%)
system.switch_cpus_10.pwrStateResidencyTicks::OFF  27285707784                       # Cumulative time (in ticks) in various power states
system.switch_cpus_10.dtb.walker.pwrStateResidencyTicks::UNDEFINED 1320637415400                       # Cumulative time (in ticks) in various power states
system.switch_cpus_10.itb.walker.pwrStateResidencyTicks::UNDEFINED 1320637415400                       # Cumulative time (in ticks) in various power states
system.switch_cpus_11.pwrStateResidencyTicks::OFF  27285707784                       # Cumulative time (in ticks) in various power states
system.switch_cpus_11.dtb.walker.pwrStateResidencyTicks::UNDEFINED 1320637415400                       # Cumulative time (in ticks) in various power states
system.switch_cpus_11.itb.walker.pwrStateResidencyTicks::UNDEFINED 1320637415400                       # Cumulative time (in ticks) in various power states
system.cpu_voltage_domain.voltage                   1                       # Voltage in Volts
system.switch_cpus1.numPwrStateTransitions            1                       # Number of power state transitions
system.switch_cpus1.pwrStateResidencyTicks::UNDEFINED 1293351707616                       # Cumulative time (in ticks) in various power states
system.switch_cpus1.pwrStateResidencyTicks::OFF  27285707784                       # Cumulative time (in ticks) in various power states
system.switch_cpus1.dtb.walker.pwrStateResidencyTicks::UNDEFINED 1320637415400                       # Cumulative time (in ticks) in various power states
system.switch_cpus1.itb.walker.pwrStateResidencyTicks::UNDEFINED 1320637415400                       # Cumulative time (in ticks) in various power states
system.mem_ctrls.pwrStateResidencyTicks::UNDEFINED 1320637415400                       # Cumulative time (in ticks) in various power states
system.mem_ctrls.bytes_read::.cpu0.inst            64                       # Number of bytes read from this memory
system.mem_ctrls.bytes_read::.cpu1.inst            64                       # Number of bytes read from this memory
system.mem_ctrls.bytes_read::.cpu1.data            64                       # Number of bytes read from this memory
system.mem_ctrls.bytes_read::.switch_cpus0.inst        78144                       # Number of bytes read from this memory
system.mem_ctrls.bytes_read::.switch_cpus0.data       274688                       # Number of bytes read from this memory
system.mem_ctrls.bytes_read::.switch_cpus1.inst        12672                       # Number of bytes read from this memory
system.mem_ctrls.bytes_read::.switch_cpus1.data        78784                       # Number of bytes read from this memory
system.mem_ctrls.bytes_read::.switch_cpus_10.inst       312320                       # Number of bytes read from this memory
system.mem_ctrls.bytes_read::.switch_cpus_10.data      7772288                       # Number of bytes read from this memory
system.mem_ctrls.bytes_read::.switch_cpus_11.inst         5568                       # Number of bytes read from this memory
system.mem_ctrls.bytes_read::.switch_cpus_11.data      1843264                       # Number of bytes read from this memory
system.mem_ctrls.bytes_read::total           10377920                       # Number of bytes read from this memory
system.mem_ctrls.bytes_inst_read::.cpu0.inst           64                       # Number of instructions bytes read from this memory
system.mem_ctrls.bytes_inst_read::.cpu1.inst           64                       # Number of instructions bytes read from this memory
system.mem_ctrls.bytes_inst_read::.switch_cpus0.inst        78144                       # Number of instructions bytes read from this memory
system.mem_ctrls.bytes_inst_read::.switch_cpus1.inst        12672                       # Number of instructions bytes read from this memory
system.mem_ctrls.bytes_inst_read::.switch_cpus_10.inst       312320                       # Number of instructions bytes read from this memory
system.mem_ctrls.bytes_inst_read::.switch_cpus_11.inst         5568                       # Number of instructions bytes read from this memory
system.mem_ctrls.bytes_inst_read::total        408832                       # Number of instructions bytes read from this memory
system.mem_ctrls.bytes_written::.switch_cpus0.data        44544                       # Number of bytes written to this memory
system.mem_ctrls.bytes_written::.switch_cpus1.data           64                       # Number of bytes written to this memory
system.mem_ctrls.bytes_written::.switch_cpus_10.data      5575360                       # Number of bytes written to this memory
system.mem_ctrls.bytes_written::total         5619968                       # Number of bytes written to this memory
system.mem_ctrls.num_reads::.cpu0.inst              1                       # Number of read requests responded to by this memory
system.mem_ctrls.num_reads::.cpu1.inst              1                       # Number of read requests responded to by this memory
system.mem_ctrls.num_reads::.cpu1.data              1                       # Number of read requests responded to by this memory
system.mem_ctrls.num_reads::.switch_cpus0.inst         1221                       # Number of read requests responded to by this memory
system.mem_ctrls.num_reads::.switch_cpus0.data         4292                       # Number of read requests responded to by this memory
system.mem_ctrls.num_reads::.switch_cpus1.inst          198                       # Number of read requests responded to by this memory
system.mem_ctrls.num_reads::.switch_cpus1.data         1231                       # Number of read requests responded to by this memory
system.mem_ctrls.num_reads::.switch_cpus_10.inst         4880                       # Number of read requests responded to by this memory
system.mem_ctrls.num_reads::.switch_cpus_10.data       121442                       # Number of read requests responded to by this memory
system.mem_ctrls.num_reads::.switch_cpus_11.inst           87                       # Number of read requests responded to by this memory
system.mem_ctrls.num_reads::.switch_cpus_11.data        28801                       # Number of read requests responded to by this memory
system.mem_ctrls.num_reads::total              162155                       # Number of read requests responded to by this memory
system.mem_ctrls.num_writes::.switch_cpus0.data          696                       # Number of write requests responded to by this memory
system.mem_ctrls.num_writes::.switch_cpus1.data            1                       # Number of write requests responded to by this memory
system.mem_ctrls.num_writes::.switch_cpus_10.data        87115                       # Number of write requests responded to by this memory
system.mem_ctrls.num_writes::total              87812                       # Number of write requests responded to by this memory
system.mem_ctrls.bw_read::.cpu0.inst             2346                       # Total read bandwidth from this memory (bytes/s)
system.mem_ctrls.bw_read::.cpu1.inst             2346                       # Total read bandwidth from this memory (bytes/s)
system.mem_ctrls.bw_read::.cpu1.data             2346                       # Total read bandwidth from this memory (bytes/s)
system.mem_ctrls.bw_read::.switch_cpus0.inst      2863917                       # Total read bandwidth from this memory (bytes/s)
system.mem_ctrls.bw_read::.switch_cpus0.data     10067102                       # Total read bandwidth from this memory (bytes/s)
system.mem_ctrls.bw_read::.switch_cpus1.inst       464419                       # Total read bandwidth from this memory (bytes/s)
system.mem_ctrls.bw_read::.switch_cpus1.data      2887372                       # Total read bandwidth from this memory (bytes/s)
system.mem_ctrls.bw_read::.switch_cpus_10.inst     11446285                       # Total read bandwidth from this memory (bytes/s)
system.mem_ctrls.bw_read::.switch_cpus_10.data    284848319                       # Total read bandwidth from this memory (bytes/s)
system.mem_ctrls.bw_read::.switch_cpus_11.inst       204063                       # Total read bandwidth from this memory (bytes/s)
system.mem_ctrls.bw_read::.switch_cpus_11.data     67554194                       # Total read bandwidth from this memory (bytes/s)
system.mem_ctrls.bw_read::total             380342708                       # Total read bandwidth from this memory (bytes/s)
system.mem_ctrls.bw_inst_read::.cpu0.inst         2346                       # Instruction read bandwidth from this memory (bytes/s)
system.mem_ctrls.bw_inst_read::.cpu1.inst         2346                       # Instruction read bandwidth from this memory (bytes/s)
system.mem_ctrls.bw_inst_read::.switch_cpus0.inst      2863917                       # Instruction read bandwidth from this memory (bytes/s)
system.mem_ctrls.bw_inst_read::.switch_cpus1.inst       464419                       # Instruction read bandwidth from this memory (bytes/s)
system.mem_ctrls.bw_inst_read::.switch_cpus_10.inst     11446285                       # Instruction read bandwidth from this memory (bytes/s)
system.mem_ctrls.bw_inst_read::.switch_cpus_11.inst       204063                       # Instruction read bandwidth from this memory (bytes/s)
system.mem_ctrls.bw_inst_read::total         14983375                       # Instruction read bandwidth from this memory (bytes/s)
system.mem_ctrls.bw_write::.switch_cpus0.data      1632503                       # Write bandwidth from this memory (bytes/s)
system.mem_ctrls.bw_write::.switch_cpus1.data         2346                       # Write bandwidth from this memory (bytes/s)
system.mem_ctrls.bw_write::.switch_cpus_10.data    204332614                       # Write bandwidth from this memory (bytes/s)
system.mem_ctrls.bw_write::total            205967463                       # Write bandwidth from this memory (bytes/s)
system.mem_ctrls.bw_total::.cpu0.inst            2346                       # Total bandwidth to/from this memory (bytes/s)
system.mem_ctrls.bw_total::.cpu1.inst            2346                       # Total bandwidth to/from this memory (bytes/s)
system.mem_ctrls.bw_total::.cpu1.data            2346                       # Total bandwidth to/from this memory (bytes/s)
system.mem_ctrls.bw_total::.switch_cpus0.inst      2863917                       # Total bandwidth to/from this memory (bytes/s)
system.mem_ctrls.bw_total::.switch_cpus0.data     11699605                       # Total bandwidth to/from this memory (bytes/s)
system.mem_ctrls.bw_total::.switch_cpus1.inst       464419                       # Total bandwidth to/from this memory (bytes/s)
system.mem_ctrls.bw_total::.switch_cpus1.data      2889718                       # Total bandwidth to/from this memory (bytes/s)
system.mem_ctrls.bw_total::.switch_cpus_10.inst     11446285                       # Total bandwidth to/from this memory (bytes/s)
system.mem_ctrls.bw_total::.switch_cpus_10.data    489180933                       # Total bandwidth to/from this memory (bytes/s)
system.mem_ctrls.bw_total::.switch_cpus_11.inst       204063                       # Total bandwidth to/from this memory (bytes/s)
system.mem_ctrls.bw_total::.switch_cpus_11.data     67554194                       # Total bandwidth to/from this memory (bytes/s)
system.mem_ctrls.bw_total::total            586310171                       # Total bandwidth to/from this memory (bytes/s)
system.cpu_clk_domain.clock                       417                       # Clock period in ticks

---------- End Simulation Statistics   ----------
