
---------- Begin Simulation Statistics ----------
final_tick                               1320319492098                       # Number of ticks from beginning of simulation (restored from checkpoints and never reset)
host_inst_rate                                 145394                       # Simulator instruction rate (inst/s)
host_mem_usage                                4505144                       # Number of bytes of host memory used
host_op_rate                                   254737                       # Simulator op (including micro ops) rate (op/s)
host_seconds                                   667.73                       # Real time elapsed on the host
host_tick_rate                               40387153                       # Simulator tick rate (ticks/s)
sim_freq                                 1000000000000                       # Frequency of simulated ticks
sim_insts                                    97083854                       # Number of instructions simulated
sim_ops                                     170096185                       # Number of ops (including micro ops) simulated
sim_seconds                                  0.026968                       # Number of seconds simulated
sim_ticks                                 26967784482                       # Number of ticks simulated
system.cpu0.Branches                                1                       # Number of branches fetched
system.cpu0.committedInsts                          2                       # Number of instructions committed
system.cpu0.committedOps                            4                       # Number of ops (including micro ops) committed
system.cpu0.dtb.rdAccesses                          0                       # TLB accesses on read requests
system.cpu0.dtb.rdMisses                            0                       # TLB misses on read requests
system.cpu0.dtb.wrAccesses                          0                       # TLB accesses on write requests
system.cpu0.dtb.wrMisses                            0                       # TLB misses on write requests
system.cpu0.idle_fraction                           0                       # Percentage of idle cycles
system.cpu0.itb.rdAccesses                          0                       # TLB accesses on read requests
system.cpu0.itb.rdMisses                            0                       # TLB misses on read requests
system.cpu0.itb.wrAccesses                          3                       # TLB accesses on write requests
system.cpu0.itb.wrMisses                            0                       # TLB misses on write requests
system.cpu0.not_idle_fraction                       1                       # Percentage of non-idle cycles
system.cpu0.numCycles                               5                       # number of cpu cycles simulated
system.cpu0.numWorkItemsCompleted                   0                       # number of work items this cpu completed
system.cpu0.numWorkItemsStarted                     0                       # number of work items this cpu started
system.cpu0.num_busy_cycles                         5                       # Number of busy cycles
system.cpu0.num_cc_register_reads                   5                       # number of times the CC registers were read
system.cpu0.num_conditional_control_insts            1                       # number of instructions that are conditional controls
system.cpu0.num_fp_alu_accesses                     0                       # Number of float alu accesses
system.cpu0.num_fp_insts                            0                       # number of float instructions
system.cpu0.num_fp_register_reads                   0                       # number of times the floating registers were read
system.cpu0.num_fp_register_writes                  0                       # number of times the floating registers were written
system.cpu0.num_func_calls                          0                       # number of times a function call or return occured
system.cpu0.num_idle_cycles                         0                       # Number of idle cycles
system.cpu0.num_int_alu_accesses                    4                       # Number of integer alu accesses
system.cpu0.num_int_insts                           4                       # number of integer instructions
system.cpu0.num_int_register_reads                  7                       # number of times the integer registers were read
system.cpu0.num_int_register_writes                 3                       # number of times the integer registers were written
system.cpu0.num_load_insts                          0                       # Number of load instructions
system.cpu0.num_mem_refs                            0                       # number of memory refs
system.cpu0.num_store_insts                         0                       # Number of store instructions
system.cpu0.num_vec_alu_accesses                    0                       # Number of vector alu accesses
system.cpu0.num_vec_insts                           0                       # number of vector instructions
system.cpu0.num_vec_register_reads                  0                       # number of times the vector registers were read
system.cpu0.num_vec_register_writes                 0                       # number of times the vector registers were written
system.cpu0.op_class::No_OpClass                    0      0.00%      0.00% # Class of executed instruction
system.cpu0.op_class::IntAlu                        4    100.00%    100.00% # Class of executed instruction
system.cpu0.op_class::IntMult                       0      0.00%    100.00% # Class of executed instruction
system.cpu0.op_class::IntDiv                        0      0.00%    100.00% # Class of executed instruction
system.cpu0.op_class::FloatAdd                      0      0.00%    100.00% # Class of executed instruction
system.cpu0.op_class::FloatCmp                      0      0.00%    100.00% # Class of executed instruction
system.cpu0.op_class::FloatCvt                      0      0.00%    100.00% # Class of executed instruction
system.cpu0.op_class::FloatMult                     0      0.00%    100.00% # Class of executed instruction
system.cpu0.op_class::FloatMultAcc                  0      0.00%    100.00% # Class of executed instruction
system.cpu0.op_class::FloatDiv                      0      0.00%    100.00% # Class of executed instruction
system.cpu0.op_class::FloatMisc                     0      0.00%    100.00% # Class of executed instruction
system.cpu0.op_class::FloatSqrt                     0      0.00%    100.00% # Class of executed instruction
system.cpu0.op_class::SimdAdd                       0      0.00%    100.00% # Class of executed instruction
system.cpu0.op_class::SimdAddAcc                    0      0.00%    100.00% # Class of executed instruction
system.cpu0.op_class::SimdAlu                       0      0.00%    100.00% # Class of executed instruction
system.cpu0.op_class::SimdCmp                       0      0.00%    100.00% # Class of executed instruction
system.cpu0.op_class::SimdCvt                       0      0.00%    100.00% # Class of executed instruction
system.cpu0.op_class::SimdMisc                      0      0.00%    100.00% # Class of executed instruction
system.cpu0.op_class::SimdMult                      0      0.00%    100.00% # Class of executed instruction
system.cpu0.op_class::SimdMultAcc                   0      0.00%    100.00% # Class of executed instruction
system.cpu0.op_class::SimdShift                     0      0.00%    100.00% # Class of executed instruction
system.cpu0.op_class::SimdShiftAcc                  0      0.00%    100.00% # Class of executed instruction
system.cpu0.op_class::SimdDiv                       0      0.00%    100.00% # Class of executed instruction
system.cpu0.op_class::SimdSqrt                      0      0.00%    100.00% # Class of executed instruction
system.cpu0.op_class::SimdFloatAdd                  0      0.00%    100.00% # Class of executed instruction
system.cpu0.op_class::SimdFloatAlu                  0      0.00%    100.00% # Class of executed instruction
system.cpu0.op_class::SimdFloatCmp                  0      0.00%    100.00% # Class of executed instruction
system.cpu0.op_class::SimdFloatCvt                  0      0.00%    100.00% # Class of executed instruction
system.cpu0.op_class::SimdFloatDiv                  0      0.00%    100.00% # Class of executed instruction
system.cpu0.op_class::SimdFloatMisc                 0      0.00%    100.00% # Class of executed instruction
system.cpu0.op_class::SimdFloatMult                 0      0.00%    100.00% # Class of executed instruction
system.cpu0.op_class::SimdFloatMultAcc              0      0.00%    100.00% # Class of executed instruction
system.cpu0.op_class::SimdFloatSqrt                 0      0.00%    100.00% # Class of executed instruction
system.cpu0.op_class::SimdReduceAdd                 0      0.00%    100.00% # Class of executed instruction
system.cpu0.op_class::SimdReduceAlu                 0      0.00%    100.00% # Class of executed instruction
system.cpu0.op_class::SimdReduceCmp                 0      0.00%    100.00% # Class of executed instruction
system.cpu0.op_class::SimdFloatReduceAdd            0      0.00%    100.00% # Class of executed instruction
system.cpu0.op_class::SimdFloatReduceCmp            0      0.00%    100.00% # Class of executed instruction
system.cpu0.op_class::SimdAes                       0      0.00%    100.00% # Class of executed instruction
system.cpu0.op_class::SimdAesMix                    0      0.00%    100.00% # Class of executed instruction
system.cpu0.op_class::SimdSha1Hash                  0      0.00%    100.00% # Class of executed instruction
system.cpu0.op_class::SimdSha1Hash2                 0      0.00%    100.00% # Class of executed instruction
system.cpu0.op_class::SimdSha256Hash                0      0.00%    100.00% # Class of executed instruction
system.cpu0.op_class::SimdSha256Hash2               0      0.00%    100.00% # Class of executed instruction
system.cpu0.op_class::SimdShaSigma2                 0      0.00%    100.00% # Class of executed instruction
system.cpu0.op_class::SimdShaSigma3                 0      0.00%    100.00% # Class of executed instruction
system.cpu0.op_class::SimdPredAlu                   0      0.00%    100.00% # Class of executed instruction
system.cpu0.op_class::MemRead                       0      0.00%    100.00% # Class of executed instruction
system.cpu0.op_class::MemWrite                      0      0.00%    100.00% # Class of executed instruction
system.cpu0.op_class::FloatMemRead                  0      0.00%    100.00% # Class of executed instruction
system.cpu0.op_class::FloatMemWrite                 0      0.00%    100.00% # Class of executed instruction
system.cpu0.op_class::IprAccess                     0      0.00%    100.00% # Class of executed instruction
system.cpu0.op_class::InstPrefetch                  0      0.00%    100.00% # Class of executed instruction
system.cpu0.op_class::total                         4                       # Class of executed instruction
system.cpu0.toL2Bus.snoop_filter.hit_multi_requests           37                       # Number of requests hitting in the snoop filter with multiple (>1) holders of the requested data.
system.cpu0.toL2Bus.snoop_filter.hit_multi_snoops            0                       # Number of snoops hitting in the snoop filter with multiple (>1) holders of the requested data.
system.cpu0.toL2Bus.snoop_filter.hit_single_requests        39097                       # Number of requests hitting in the snoop filter with a single holder of the requested data.
system.cpu0.toL2Bus.snoop_filter.hit_single_snoops          345                       # Number of snoops hitting in the snoop filter with a single holder of the requested data.
system.cpu0.toL2Bus.snoop_filter.tot_requests        79041                       # Total number of requests made to the snoop filter.
system.cpu0.toL2Bus.snoop_filter.tot_snoops          345                       # Total number of snoops made to the snoop filter.
system.cpu0.toL3Bus.snoop_filter.hit_multi_requests            0                       # Number of requests hitting in the snoop filter with multiple (>1) holders of the requested data.
system.cpu0.toL3Bus.snoop_filter.hit_multi_snoops            0                       # Number of snoops hitting in the snoop filter with multiple (>1) holders of the requested data.
system.cpu0.toL3Bus.snoop_filter.hit_single_requests         9698                       # Number of requests hitting in the snoop filter with a single holder of the requested data.
system.cpu0.toL3Bus.snoop_filter.hit_single_snoops            0                       # Number of snoops hitting in the snoop filter with a single holder of the requested data.
system.cpu0.toL3Bus.snoop_filter.tot_requests        23836                       # Total number of requests made to the snoop filter.
system.cpu0.toL3Bus.snoop_filter.tot_snoops            0                       # Total number of snoops made to the snoop filter.
system.cpu0.workload.numSyscalls                    0                       # Number of system calls
system.cpu1.Branches                                1                       # Number of branches fetched
system.cpu1.committedInsts                          1                       # Number of instructions committed
system.cpu1.committedOps                            5                       # Number of ops (including micro ops) committed
system.cpu1.dtb.rdAccesses                          0                       # TLB accesses on read requests
system.cpu1.dtb.rdMisses                            0                       # TLB misses on read requests
system.cpu1.dtb.wrAccesses                          1                       # TLB accesses on write requests
system.cpu1.dtb.wrMisses                            0                       # TLB misses on write requests
system.cpu1.idle_fraction                           0                       # Percentage of idle cycles
system.cpu1.itb.rdAccesses                          0                       # TLB accesses on read requests
system.cpu1.itb.rdMisses                            0                       # TLB misses on read requests
system.cpu1.itb.wrAccesses                          2                       # TLB accesses on write requests
system.cpu1.itb.wrMisses                            0                       # TLB misses on write requests
system.cpu1.not_idle_fraction                       1                       # Percentage of non-idle cycles
system.cpu1.numCycles                               6                       # number of cpu cycles simulated
system.cpu1.numWorkItemsCompleted                   0                       # number of work items this cpu completed
system.cpu1.numWorkItemsStarted                     0                       # number of work items this cpu started
system.cpu1.num_busy_cycles                         6                       # Number of busy cycles
system.cpu1.num_conditional_control_insts            0                       # number of instructions that are conditional controls
system.cpu1.num_fp_alu_accesses                     0                       # Number of float alu accesses
system.cpu1.num_fp_insts                            0                       # number of float instructions
system.cpu1.num_fp_register_reads                   0                       # number of times the floating registers were read
system.cpu1.num_fp_register_writes                  0                       # number of times the floating registers were written
system.cpu1.num_func_calls                          1                       # number of times a function call or return occured
system.cpu1.num_idle_cycles                         0                       # Number of idle cycles
system.cpu1.num_int_alu_accesses                    5                       # Number of integer alu accesses
system.cpu1.num_int_insts                           5                       # number of integer instructions
system.cpu1.num_int_register_reads                  9                       # number of times the integer registers were read
system.cpu1.num_int_register_writes                 3                       # number of times the integer registers were written
system.cpu1.num_load_insts                          0                       # Number of load instructions
system.cpu1.num_mem_refs                            1                       # number of memory refs
system.cpu1.num_store_insts                         1                       # Number of store instructions
system.cpu1.num_vec_alu_accesses                    0                       # Number of vector alu accesses
system.cpu1.num_vec_insts                           0                       # number of vector instructions
system.cpu1.num_vec_register_reads                  0                       # number of times the vector registers were read
system.cpu1.num_vec_register_writes                 0                       # number of times the vector registers were written
system.cpu1.op_class::No_OpClass                    0      0.00%      0.00% # Class of executed instruction
system.cpu1.op_class::IntAlu                        4     80.00%     80.00% # Class of executed instruction
system.cpu1.op_class::IntMult                       0      0.00%     80.00% # Class of executed instruction
system.cpu1.op_class::IntDiv                        0      0.00%     80.00% # Class of executed instruction
system.cpu1.op_class::FloatAdd                      0      0.00%     80.00% # Class of executed instruction
system.cpu1.op_class::FloatCmp                      0      0.00%     80.00% # Class of executed instruction
system.cpu1.op_class::FloatCvt                      0      0.00%     80.00% # Class of executed instruction
system.cpu1.op_class::FloatMult                     0      0.00%     80.00% # Class of executed instruction
system.cpu1.op_class::FloatMultAcc                  0      0.00%     80.00% # Class of executed instruction
system.cpu1.op_class::FloatDiv                      0      0.00%     80.00% # Class of executed instruction
system.cpu1.op_class::FloatMisc                     0      0.00%     80.00% # Class of executed instruction
system.cpu1.op_class::FloatSqrt                     0      0.00%     80.00% # Class of executed instruction
system.cpu1.op_class::SimdAdd                       0      0.00%     80.00% # Class of executed instruction
system.cpu1.op_class::SimdAddAcc                    0      0.00%     80.00% # Class of executed instruction
system.cpu1.op_class::SimdAlu                       0      0.00%     80.00% # Class of executed instruction
system.cpu1.op_class::SimdCmp                       0      0.00%     80.00% # Class of executed instruction
system.cpu1.op_class::SimdCvt                       0      0.00%     80.00% # Class of executed instruction
system.cpu1.op_class::SimdMisc                      0      0.00%     80.00% # Class of executed instruction
system.cpu1.op_class::SimdMult                      0      0.00%     80.00% # Class of executed instruction
system.cpu1.op_class::SimdMultAcc                   0      0.00%     80.00% # Class of executed instruction
system.cpu1.op_class::SimdShift                     0      0.00%     80.00% # Class of executed instruction
system.cpu1.op_class::SimdShiftAcc                  0      0.00%     80.00% # Class of executed instruction
system.cpu1.op_class::SimdDiv                       0      0.00%     80.00% # Class of executed instruction
system.cpu1.op_class::SimdSqrt                      0      0.00%     80.00% # Class of executed instruction
system.cpu1.op_class::SimdFloatAdd                  0      0.00%     80.00% # Class of executed instruction
system.cpu1.op_class::SimdFloatAlu                  0      0.00%     80.00% # Class of executed instruction
system.cpu1.op_class::SimdFloatCmp                  0      0.00%     80.00% # Class of executed instruction
system.cpu1.op_class::SimdFloatCvt                  0      0.00%     80.00% # Class of executed instruction
system.cpu1.op_class::SimdFloatDiv                  0      0.00%     80.00% # Class of executed instruction
system.cpu1.op_class::SimdFloatMisc                 0      0.00%     80.00% # Class of executed instruction
system.cpu1.op_class::SimdFloatMult                 0      0.00%     80.00% # Class of executed instruction
system.cpu1.op_class::SimdFloatMultAcc              0      0.00%     80.00% # Class of executed instruction
system.cpu1.op_class::SimdFloatSqrt                 0      0.00%     80.00% # Class of executed instruction
system.cpu1.op_class::SimdReduceAdd                 0      0.00%     80.00% # Class of executed instruction
system.cpu1.op_class::SimdReduceAlu                 0      0.00%     80.00% # Class of executed instruction
system.cpu1.op_class::SimdReduceCmp                 0      0.00%     80.00% # Class of executed instruction
system.cpu1.op_class::SimdFloatReduceAdd            0      0.00%     80.00% # Class of executed instruction
system.cpu1.op_class::SimdFloatReduceCmp            0      0.00%     80.00% # Class of executed instruction
system.cpu1.op_class::SimdAes                       0      0.00%     80.00% # Class of executed instruction
system.cpu1.op_class::SimdAesMix                    0      0.00%     80.00% # Class of executed instruction
system.cpu1.op_class::SimdSha1Hash                  0      0.00%     80.00% # Class of executed instruction
system.cpu1.op_class::SimdSha1Hash2                 0      0.00%     80.00% # Class of executed instruction
system.cpu1.op_class::SimdSha256Hash                0      0.00%     80.00% # Class of executed instruction
system.cpu1.op_class::SimdSha256Hash2               0      0.00%     80.00% # Class of executed instruction
system.cpu1.op_class::SimdShaSigma2                 0      0.00%     80.00% # Class of executed instruction
system.cpu1.op_class::SimdShaSigma3                 0      0.00%     80.00% # Class of executed instruction
system.cpu1.op_class::SimdPredAlu                   0      0.00%     80.00% # Class of executed instruction
system.cpu1.op_class::MemRead                       0      0.00%     80.00% # Class of executed instruction
system.cpu1.op_class::MemWrite                      1     20.00%    100.00% # Class of executed instruction
system.cpu1.op_class::FloatMemRead                  0      0.00%    100.00% # Class of executed instruction
system.cpu1.op_class::FloatMemWrite                 0      0.00%    100.00% # Class of executed instruction
system.cpu1.op_class::IprAccess                     0      0.00%    100.00% # Class of executed instruction
system.cpu1.op_class::InstPrefetch                  0      0.00%    100.00% # Class of executed instruction
system.cpu1.op_class::total                         5                       # Class of executed instruction
system.cpu1.toL2Bus.snoop_filter.hit_multi_requests           40                       # Number of requests hitting in the snoop filter with multiple (>1) holders of the requested data.
system.cpu1.toL2Bus.snoop_filter.hit_multi_snoops            0                       # Number of snoops hitting in the snoop filter with multiple (>1) holders of the requested data.
system.cpu1.toL2Bus.snoop_filter.hit_single_requests        56103                       # Number of requests hitting in the snoop filter with a single holder of the requested data.
system.cpu1.toL2Bus.snoop_filter.hit_single_snoops          496                       # Number of snoops hitting in the snoop filter with a single holder of the requested data.
system.cpu1.toL2Bus.snoop_filter.tot_requests       113005                       # Total number of requests made to the snoop filter.
system.cpu1.toL2Bus.snoop_filter.tot_snoops          496                       # Total number of snoops made to the snoop filter.
system.cpu1.toL3Bus.snoop_filter.hit_multi_requests            0                       # Number of requests hitting in the snoop filter with multiple (>1) holders of the requested data.
system.cpu1.toL3Bus.snoop_filter.hit_multi_snoops            0                       # Number of snoops hitting in the snoop filter with multiple (>1) holders of the requested data.
system.cpu1.toL3Bus.snoop_filter.hit_single_requests        25880                       # Number of requests hitting in the snoop filter with a single holder of the requested data.
system.cpu1.toL3Bus.snoop_filter.hit_single_snoops          231                       # Number of snoops hitting in the snoop filter with a single holder of the requested data.
system.cpu1.toL3Bus.snoop_filter.tot_requests        56178                       # Total number of requests made to the snoop filter.
system.cpu1.toL3Bus.snoop_filter.tot_snoops          231                       # Total number of snoops made to the snoop filter.
system.cpu1.workload.numSyscalls                16948                       # Number of system calls
system.membus.snoop_filter.hit_multi_requests            0                       # Number of requests hitting in the snoop filter with multiple (>1) holders of the requested data.
system.membus.snoop_filter.hit_multi_snoops            0                       # Number of snoops hitting in the snoop filter with multiple (>1) holders of the requested data.
system.membus.snoop_filter.hit_single_requests          605                       # Number of requests hitting in the snoop filter with a single holder of the requested data.
system.membus.snoop_filter.hit_single_snoops            0                       # Number of snoops hitting in the snoop filter with a single holder of the requested data.
system.membus.snoop_filter.tot_requests         43963                       # Total number of requests made to the snoop filter.
system.membus.snoop_filter.tot_snoops               0                       # Total number of snoops made to the snoop filter.
system.switch_cpus0.Branches                   117309                       # Number of branches fetched
system.switch_cpus0.committedInsts            1000002                       # Number of instructions committed
system.switch_cpus0.committedOps              1452740                       # Number of ops (including micro ops) committed
system.switch_cpus0.dtb.rdAccesses             152930                       # TLB accesses on read requests
system.switch_cpus0.dtb.rdMisses                   39                       # TLB misses on read requests
system.switch_cpus0.dtb.wrAccesses              66073                       # TLB accesses on write requests
system.switch_cpus0.dtb.wrMisses                    9                       # TLB misses on write requests
system.switch_cpus0.idle_fraction            0.000000                       # Percentage of idle cycles
system.switch_cpus0.itb.rdAccesses                  0                       # TLB accesses on read requests
system.switch_cpus0.itb.rdMisses                    0                       # TLB misses on read requests
system.switch_cpus0.itb.wrAccesses            1349116                       # TLB accesses on write requests
system.switch_cpus0.itb.wrMisses                   15                       # TLB misses on write requests
system.switch_cpus0.not_idle_fraction        1.000000                       # Percentage of non-idle cycles
system.switch_cpus0.numCycles                 5057154                       # number of cpu cycles simulated
system.switch_cpus0.numWorkItemsCompleted            0                       # number of work items this cpu completed
system.switch_cpus0.numWorkItemsStarted             0                       # number of work items this cpu started
system.switch_cpus0.num_busy_cycles      5057153.530811                       # Number of busy cycles
system.switch_cpus0.num_cc_register_reads       715708                       # number of times the CC registers were read
system.switch_cpus0.num_cc_register_writes       828767                       # number of times the CC registers were written
system.switch_cpus0.num_conditional_control_insts        96812                       # number of instructions that are conditional controls
system.switch_cpus0.num_fp_alu_accesses          6832                       # Number of float alu accesses
system.switch_cpus0.num_fp_insts                 6832                       # number of float instructions
system.switch_cpus0.num_fp_register_reads         3416                       # number of times the floating registers were read
system.switch_cpus0.num_fp_register_writes         3416                       # number of times the floating registers were written
system.switch_cpus0.num_func_calls                504                       # number of times a function call or return occured
system.switch_cpus0.num_idle_cycles          0.469189                       # Number of idle cycles
system.switch_cpus0.num_int_alu_accesses      1452684                       # Number of integer alu accesses
system.switch_cpus0.num_int_insts             1452684                       # number of integer instructions
system.switch_cpus0.num_int_register_reads      3000823                       # number of times the integer registers were read
system.switch_cpus0.num_int_register_writes      1302061                       # number of times the integer registers were written
system.switch_cpus0.num_load_insts             152884                       # Number of load instructions
system.switch_cpus0.num_mem_refs               218915                       # number of memory refs
system.switch_cpus0.num_store_insts             66031                       # Number of store instructions
system.switch_cpus0.num_vec_alu_accesses            0                       # Number of vector alu accesses
system.switch_cpus0.num_vec_insts                   0                       # number of vector instructions
system.switch_cpus0.num_vec_register_reads            0                       # number of times the vector registers were read
system.switch_cpus0.num_vec_register_writes            0                       # number of times the vector registers were written
system.switch_cpus0.op_class::No_OpClass         1574      0.11%      0.11% # Class of executed instruction
system.switch_cpus0.op_class::IntAlu          1197642     82.35%     82.46% # Class of executed instruction
system.switch_cpus0.op_class::IntMult           36133      2.48%     84.95% # Class of executed instruction
system.switch_cpus0.op_class::IntDiv                0      0.00%     84.95% # Class of executed instruction
system.switch_cpus0.op_class::FloatAdd              0      0.00%     84.95% # Class of executed instruction
system.switch_cpus0.op_class::FloatCmp              0      0.00%     84.95% # Class of executed instruction
system.switch_cpus0.op_class::FloatCvt              0      0.00%     84.95% # Class of executed instruction
system.switch_cpus0.op_class::FloatMult             0      0.00%     84.95% # Class of executed instruction
system.switch_cpus0.op_class::FloatMultAcc            0      0.00%     84.95% # Class of executed instruction
system.switch_cpus0.op_class::FloatDiv              0      0.00%     84.95% # Class of executed instruction
system.switch_cpus0.op_class::FloatMisc             0      0.00%     84.95% # Class of executed instruction
system.switch_cpus0.op_class::FloatSqrt             0      0.00%     84.95% # Class of executed instruction
system.switch_cpus0.op_class::SimdAdd               0      0.00%     84.95% # Class of executed instruction
system.switch_cpus0.op_class::SimdAddAcc            0      0.00%     84.95% # Class of executed instruction
system.switch_cpus0.op_class::SimdAlu               0      0.00%     84.95% # Class of executed instruction
system.switch_cpus0.op_class::SimdCmp               0      0.00%     84.95% # Class of executed instruction
system.switch_cpus0.op_class::SimdCvt               0      0.00%     84.95% # Class of executed instruction
system.switch_cpus0.op_class::SimdMisc              0      0.00%     84.95% # Class of executed instruction
system.switch_cpus0.op_class::SimdMult              0      0.00%     84.95% # Class of executed instruction
system.switch_cpus0.op_class::SimdMultAcc            0      0.00%     84.95% # Class of executed instruction
system.switch_cpus0.op_class::SimdShift             0      0.00%     84.95% # Class of executed instruction
system.switch_cpus0.op_class::SimdShiftAcc            0      0.00%     84.95% # Class of executed instruction
system.switch_cpus0.op_class::SimdDiv               0      0.00%     84.95% # Class of executed instruction
system.switch_cpus0.op_class::SimdSqrt              0      0.00%     84.95% # Class of executed instruction
system.switch_cpus0.op_class::SimdFloatAdd            0      0.00%     84.95% # Class of executed instruction
system.switch_cpus0.op_class::SimdFloatAlu            0      0.00%     84.95% # Class of executed instruction
system.switch_cpus0.op_class::SimdFloatCmp            0      0.00%     84.95% # Class of executed instruction
system.switch_cpus0.op_class::SimdFloatCvt            0      0.00%     84.95% # Class of executed instruction
system.switch_cpus0.op_class::SimdFloatDiv            0      0.00%     84.95% # Class of executed instruction
system.switch_cpus0.op_class::SimdFloatMisc            0      0.00%     84.95% # Class of executed instruction
system.switch_cpus0.op_class::SimdFloatMult            0      0.00%     84.95% # Class of executed instruction
system.switch_cpus0.op_class::SimdFloatMultAcc            0      0.00%     84.95% # Class of executed instruction
system.switch_cpus0.op_class::SimdFloatSqrt            0      0.00%     84.95% # Class of executed instruction
system.switch_cpus0.op_class::SimdReduceAdd            0      0.00%     84.95% # Class of executed instruction
system.switch_cpus0.op_class::SimdReduceAlu            0      0.00%     84.95% # Class of executed instruction
system.switch_cpus0.op_class::SimdReduceCmp            0      0.00%     84.95% # Class of executed instruction
system.switch_cpus0.op_class::SimdFloatReduceAdd            0      0.00%     84.95% # Class of executed instruction
system.switch_cpus0.op_class::SimdFloatReduceCmp            0      0.00%     84.95% # Class of executed instruction
system.switch_cpus0.op_class::SimdAes               0      0.00%     84.95% # Class of executed instruction
system.switch_cpus0.op_class::SimdAesMix            0      0.00%     84.95% # Class of executed instruction
system.switch_cpus0.op_class::SimdSha1Hash            0      0.00%     84.95% # Class of executed instruction
system.switch_cpus0.op_class::SimdSha1Hash2            0      0.00%     84.95% # Class of executed instruction
system.switch_cpus0.op_class::SimdSha256Hash            0      0.00%     84.95% # Class of executed instruction
system.switch_cpus0.op_class::SimdSha256Hash2            0      0.00%     84.95% # Class of executed instruction
system.switch_cpus0.op_class::SimdShaSigma2            0      0.00%     84.95% # Class of executed instruction
system.switch_cpus0.op_class::SimdShaSigma3            0      0.00%     84.95% # Class of executed instruction
system.switch_cpus0.op_class::SimdPredAlu            0      0.00%     84.95% # Class of executed instruction
system.switch_cpus0.op_class::MemRead          149468     10.28%     95.22% # Class of executed instruction
system.switch_cpus0.op_class::MemWrite          62615      4.31%     99.53% # Class of executed instruction
system.switch_cpus0.op_class::FloatMemRead         3416      0.23%     99.77% # Class of executed instruction
system.switch_cpus0.op_class::FloatMemWrite         3416      0.23%    100.00% # Class of executed instruction
system.switch_cpus0.op_class::IprAccess             0      0.00%    100.00% # Class of executed instruction
system.switch_cpus0.op_class::InstPrefetch            0      0.00%    100.00% # Class of executed instruction
system.switch_cpus0.op_class::total           1454264                       # Class of executed instruction
system.switch_cpus1.Branches                   197223                       # Number of branches fetched
system.switch_cpus1.committedInsts             877539                       # Number of instructions committed
system.switch_cpus1.committedOps              1775783                       # Number of ops (including micro ops) committed
system.switch_cpus1.dtb.rdAccesses             256294                       # TLB accesses on read requests
system.switch_cpus1.dtb.rdMisses                   40                       # TLB misses on read requests
system.switch_cpus1.dtb.wrAccesses             187236                       # TLB accesses on write requests
system.switch_cpus1.dtb.wrMisses                    3                       # TLB misses on write requests
system.switch_cpus1.idle_fraction            0.000000                       # Percentage of idle cycles
system.switch_cpus1.itb.rdAccesses                  0                       # TLB accesses on read requests
system.switch_cpus1.itb.rdMisses                    0                       # TLB misses on read requests
system.switch_cpus1.itb.wrAccesses            1112576                       # TLB accesses on write requests
system.switch_cpus1.itb.wrMisses                   27                       # TLB misses on write requests
system.switch_cpus1.not_idle_fraction        1.000000                       # Percentage of non-idle cycles
system.switch_cpus1.numCycles                 5057154                       # number of cpu cycles simulated
system.switch_cpus1.numWorkItemsCompleted            0                       # number of work items this cpu completed
system.switch_cpus1.numWorkItemsStarted             0                       # number of work items this cpu started
system.switch_cpus1.num_busy_cycles      5057153.530811                       # Number of busy cycles
system.switch_cpus1.num_cc_register_reads       734452                       # number of times the CC registers were read
system.switch_cpus1.num_cc_register_writes       394044                       # number of times the CC registers were written
system.switch_cpus1.num_conditional_control_insts        89824                       # number of instructions that are conditional controls
system.switch_cpus1.num_fp_alu_accesses         14479                       # Number of float alu accesses
system.switch_cpus1.num_fp_insts                14479                       # number of float instructions
system.switch_cpus1.num_fp_register_reads        24305                       # number of times the floating registers were read
system.switch_cpus1.num_fp_register_writes        12735                       # number of times the floating registers were written
system.switch_cpus1.num_func_calls              93055                       # number of times a function call or return occured
system.switch_cpus1.num_idle_cycles          0.469189                       # Number of idle cycles
system.switch_cpus1.num_int_alu_accesses      1757528                       # Number of integer alu accesses
system.switch_cpus1.num_int_insts             1757528                       # number of integer instructions
system.switch_cpus1.num_int_register_reads      3726175                       # number of times the integer registers were read
system.switch_cpus1.num_int_register_writes      1378556                       # number of times the integer registers were written
system.switch_cpus1.num_load_insts             256292                       # Number of load instructions
system.switch_cpus1.num_mem_refs               443526                       # number of memory refs
system.switch_cpus1.num_store_insts            187234                       # Number of store instructions
system.switch_cpus1.num_vec_alu_accesses            0                       # Number of vector alu accesses
system.switch_cpus1.num_vec_insts                   0                       # number of vector instructions
system.switch_cpus1.num_vec_register_reads            0                       # number of times the vector registers were read
system.switch_cpus1.num_vec_register_writes            0                       # number of times the vector registers were written
system.switch_cpus1.op_class::No_OpClass         5896      0.33%      0.33% # Class of executed instruction
system.switch_cpus1.op_class::IntAlu          1313098     73.94%     74.28% # Class of executed instruction
system.switch_cpus1.op_class::IntMult             818      0.05%     74.32% # Class of executed instruction
system.switch_cpus1.op_class::IntDiv             2023      0.11%     74.44% # Class of executed instruction
system.switch_cpus1.op_class::FloatAdd            577      0.03%     74.47% # Class of executed instruction
system.switch_cpus1.op_class::FloatCmp              0      0.00%     74.47% # Class of executed instruction
system.switch_cpus1.op_class::FloatCvt              0      0.00%     74.47% # Class of executed instruction
system.switch_cpus1.op_class::FloatMult             0      0.00%     74.47% # Class of executed instruction
system.switch_cpus1.op_class::FloatMultAcc            0      0.00%     74.47% # Class of executed instruction
system.switch_cpus1.op_class::FloatDiv              0      0.00%     74.47% # Class of executed instruction
system.switch_cpus1.op_class::FloatMisc             0      0.00%     74.47% # Class of executed instruction
system.switch_cpus1.op_class::FloatSqrt             0      0.00%     74.47% # Class of executed instruction
system.switch_cpus1.op_class::SimdAdd               0      0.00%     74.47% # Class of executed instruction
system.switch_cpus1.op_class::SimdAddAcc            0      0.00%     74.47% # Class of executed instruction
system.switch_cpus1.op_class::SimdAlu            2316      0.13%     74.60% # Class of executed instruction
system.switch_cpus1.op_class::SimdCmp               0      0.00%     74.60% # Class of executed instruction
system.switch_cpus1.op_class::SimdCvt            2322      0.13%     74.73% # Class of executed instruction
system.switch_cpus1.op_class::SimdMisc           5207      0.29%     75.02% # Class of executed instruction
system.switch_cpus1.op_class::SimdMult              0      0.00%     75.02% # Class of executed instruction
system.switch_cpus1.op_class::SimdMultAcc            0      0.00%     75.02% # Class of executed instruction
system.switch_cpus1.op_class::SimdShift             0      0.00%     75.02% # Class of executed instruction
system.switch_cpus1.op_class::SimdShiftAcc            0      0.00%     75.02% # Class of executed instruction
system.switch_cpus1.op_class::SimdDiv               0      0.00%     75.02% # Class of executed instruction
system.switch_cpus1.op_class::SimdSqrt              0      0.00%     75.02% # Class of executed instruction
system.switch_cpus1.op_class::SimdFloatAdd            0      0.00%     75.02% # Class of executed instruction
system.switch_cpus1.op_class::SimdFloatAlu            0      0.00%     75.02% # Class of executed instruction
system.switch_cpus1.op_class::SimdFloatCmp            0      0.00%     75.02% # Class of executed instruction
system.switch_cpus1.op_class::SimdFloatCvt            0      0.00%     75.02% # Class of executed instruction
system.switch_cpus1.op_class::SimdFloatDiv            0      0.00%     75.02% # Class of executed instruction
system.switch_cpus1.op_class::SimdFloatMisc            0      0.00%     75.02% # Class of executed instruction
system.switch_cpus1.op_class::SimdFloatMult            0      0.00%     75.02% # Class of executed instruction
system.switch_cpus1.op_class::SimdFloatMultAcc            0      0.00%     75.02% # Class of executed instruction
system.switch_cpus1.op_class::SimdFloatSqrt            0      0.00%     75.02% # Class of executed instruction
system.switch_cpus1.op_class::SimdReduceAdd            0      0.00%     75.02% # Class of executed instruction
system.switch_cpus1.op_class::SimdReduceAlu            0      0.00%     75.02% # Class of executed instruction
system.switch_cpus1.op_class::SimdReduceCmp            0      0.00%     75.02% # Class of executed instruction
system.switch_cpus1.op_class::SimdFloatReduceAdd            0      0.00%     75.02% # Class of executed instruction
system.switch_cpus1.op_class::SimdFloatReduceCmp            0      0.00%     75.02% # Class of executed instruction
system.switch_cpus1.op_class::SimdAes               0      0.00%     75.02% # Class of executed instruction
system.switch_cpus1.op_class::SimdAesMix            0      0.00%     75.02% # Class of executed instruction
system.switch_cpus1.op_class::SimdSha1Hash            0      0.00%     75.02% # Class of executed instruction
system.switch_cpus1.op_class::SimdSha1Hash2            0      0.00%     75.02% # Class of executed instruction
system.switch_cpus1.op_class::SimdSha256Hash            0      0.00%     75.02% # Class of executed instruction
system.switch_cpus1.op_class::SimdSha256Hash2            0      0.00%     75.02% # Class of executed instruction
system.switch_cpus1.op_class::SimdShaSigma2            0      0.00%     75.02% # Class of executed instruction
system.switch_cpus1.op_class::SimdShaSigma3            0      0.00%     75.02% # Class of executed instruction
system.switch_cpus1.op_class::SimdPredAlu            0      0.00%     75.02% # Class of executed instruction
system.switch_cpus1.op_class::MemRead          254542     14.33%     89.36% # Class of executed instruction
system.switch_cpus1.op_class::MemWrite         186658     10.51%     99.87% # Class of executed instruction
system.switch_cpus1.op_class::FloatMemRead         1750      0.10%     99.97% # Class of executed instruction
system.switch_cpus1.op_class::FloatMemWrite          576      0.03%    100.00% # Class of executed instruction
system.switch_cpus1.op_class::IprAccess             0      0.00%    100.00% # Class of executed instruction
system.switch_cpus1.op_class::InstPrefetch            0      0.00%    100.00% # Class of executed instruction
system.switch_cpus1.op_class::total           1775783                       # Class of executed instruction
system.switch_cpus_10.branchPred.BTBCorrect            0                       # Number of correct BTB predictions (this stat may not work properly.
system.switch_cpus_10.branchPred.BTBHitPct     0.000000                       # BTB Hit Percentage
system.switch_cpus_10.branchPred.BTBHits            0                       # Number of BTB hits
system.switch_cpus_10.branchPred.BTBLookups     12326278                       # Number of BTB lookups
system.switch_cpus_10.branchPred.RASInCorrect            6                       # Number of incorrect RAS predictions.
system.switch_cpus_10.branchPred.condIncorrect      1810989                       # Number of conditional branches incorrect
system.switch_cpus_10.branchPred.condPredicted     13445393                       # Number of conditional branches predicted
system.switch_cpus_10.branchPred.indirectHits      4384305                       # Number of indirect target hits.
system.switch_cpus_10.branchPred.indirectLookups     12326278                       # Number of indirect predictor lookups.
system.switch_cpus_10.branchPred.indirectMisses      7941973                       # Number of indirect misses.
system.switch_cpus_10.branchPred.lookups     13514313                       # Number of BP lookups
system.switch_cpus_10.branchPred.usedRAS        25610                       # Number of times the RAS was used to get a target.
system.switch_cpus_10.branchPredindirectMispredicted      1311008                       # Number of mispredicted indirect branches.
system.switch_cpus_10.cc_regfile_reads       42884454                       # number of cc regfile reads
system.switch_cpus_10.cc_regfile_writes      55036034                       # number of cc regfile writes
system.switch_cpus_10.commit.amos                   0                       # Number of atomic instructions committed
system.switch_cpus_10.commit.branchMispredicts      1810989                       # The number of times a branch was mispredicted
system.switch_cpus_10.commit.branches         5330021                       # Number of branches committed
system.switch_cpus_10.commit.bw_lim_events      2842687                       # number cycles where commit BW limit reached
system.switch_cpus_10.commit.commitNonSpecStalls          102                       # The number of times commit has been forced to stall to communicate backwards
system.switch_cpus_10.commit.commitSquashedInsts     69810240                       # The number of squashed insts skipped by commit
system.switch_cpus_10.commit.committedInsts     45206309                       # Number of instructions committed
system.switch_cpus_10.commit.committedOps     65570779                       # Number of ops (including micro ops) committed
system.switch_cpus_10.commit.committed_per_cycle::samples     49631872                       # Number of insts commited each cycle
system.switch_cpus_10.commit.committed_per_cycle::mean     1.321143                       # Number of insts commited each cycle
system.switch_cpus_10.commit.committed_per_cycle::stdev     2.154704                       # Number of insts commited each cycle
system.switch_cpus_10.commit.committed_per_cycle::underflows            0      0.00%      0.00% # Number of insts commited each cycle
system.switch_cpus_10.commit.committed_per_cycle::0     27219169     54.84%     54.84% # Number of insts commited each cycle
system.switch_cpus_10.commit.committed_per_cycle::1      9634297     19.41%     74.25% # Number of insts commited each cycle
system.switch_cpus_10.commit.committed_per_cycle::2      2209190      4.45%     78.70% # Number of insts commited each cycle
system.switch_cpus_10.commit.committed_per_cycle::3      4668682      9.41%     88.11% # Number of insts commited each cycle
system.switch_cpus_10.commit.committed_per_cycle::4      1590414      3.20%     91.32% # Number of insts commited each cycle
system.switch_cpus_10.commit.committed_per_cycle::5       752654      1.52%     92.83% # Number of insts commited each cycle
system.switch_cpus_10.commit.committed_per_cycle::6       357819      0.72%     93.55% # Number of insts commited each cycle
system.switch_cpus_10.commit.committed_per_cycle::7       356960      0.72%     94.27% # Number of insts commited each cycle
system.switch_cpus_10.commit.committed_per_cycle::8      2842687      5.73%    100.00% # Number of insts commited each cycle
system.switch_cpus_10.commit.committed_per_cycle::overflows            0      0.00%    100.00% # Number of insts commited each cycle
system.switch_cpus_10.commit.committed_per_cycle::min_value            0                       # Number of insts commited each cycle
system.switch_cpus_10.commit.committed_per_cycle::max_value            8                       # Number of insts commited each cycle
system.switch_cpus_10.commit.committed_per_cycle::total     49631872                       # Number of insts commited each cycle
system.switch_cpus_10.commit.fp_insts          216984                       # Number of committed floating point instructions.
system.switch_cpus_10.commit.function_calls        11154                       # Number of function calls committed.
system.switch_cpus_10.commit.int_insts       65569483                       # Number of committed integer instructions.
system.switch_cpus_10.commit.loads            6786681                       # Number of loads committed
system.switch_cpus_10.commit.membars                0                       # Number of memory barriers committed
system.switch_cpus_10.commit.op_class_0::No_OpClass         1171      0.00%      0.00% # Class of committed instruction
system.switch_cpus_10.commit.op_class_0::IntAlu     54213631     82.68%     82.68% # Class of committed instruction
system.switch_cpus_10.commit.op_class_0::IntMult      1645678      2.51%     85.19% # Class of committed instruction
system.switch_cpus_10.commit.op_class_0::IntDiv            0      0.00%     85.19% # Class of committed instruction
system.switch_cpus_10.commit.op_class_0::FloatAdd            0      0.00%     85.19% # Class of committed instruction
system.switch_cpus_10.commit.op_class_0::FloatCmp            0      0.00%     85.19% # Class of committed instruction
system.switch_cpus_10.commit.op_class_0::FloatCvt            0      0.00%     85.19% # Class of committed instruction
system.switch_cpus_10.commit.op_class_0::FloatMult            0      0.00%     85.19% # Class of committed instruction
system.switch_cpus_10.commit.op_class_0::FloatMultAcc            0      0.00%     85.19% # Class of committed instruction
system.switch_cpus_10.commit.op_class_0::FloatDiv            0      0.00%     85.19% # Class of committed instruction
system.switch_cpus_10.commit.op_class_0::FloatMisc            0      0.00%     85.19% # Class of committed instruction
system.switch_cpus_10.commit.op_class_0::FloatSqrt            0      0.00%     85.19% # Class of committed instruction
system.switch_cpus_10.commit.op_class_0::SimdAdd            0      0.00%     85.19% # Class of committed instruction
system.switch_cpus_10.commit.op_class_0::SimdAddAcc            0      0.00%     85.19% # Class of committed instruction
system.switch_cpus_10.commit.op_class_0::SimdAlu            0      0.00%     85.19% # Class of committed instruction
system.switch_cpus_10.commit.op_class_0::SimdCmp            0      0.00%     85.19% # Class of committed instruction
system.switch_cpus_10.commit.op_class_0::SimdCvt            0      0.00%     85.19% # Class of committed instruction
system.switch_cpus_10.commit.op_class_0::SimdMisc            0      0.00%     85.19% # Class of committed instruction
system.switch_cpus_10.commit.op_class_0::SimdMult            0      0.00%     85.19% # Class of committed instruction
system.switch_cpus_10.commit.op_class_0::SimdMultAcc            0      0.00%     85.19% # Class of committed instruction
system.switch_cpus_10.commit.op_class_0::SimdShift            0      0.00%     85.19% # Class of committed instruction
system.switch_cpus_10.commit.op_class_0::SimdShiftAcc            0      0.00%     85.19% # Class of committed instruction
system.switch_cpus_10.commit.op_class_0::SimdDiv            0      0.00%     85.19% # Class of committed instruction
system.switch_cpus_10.commit.op_class_0::SimdSqrt            0      0.00%     85.19% # Class of committed instruction
system.switch_cpus_10.commit.op_class_0::SimdFloatAdd            0      0.00%     85.19% # Class of committed instruction
system.switch_cpus_10.commit.op_class_0::SimdFloatAlu            0      0.00%     85.19% # Class of committed instruction
system.switch_cpus_10.commit.op_class_0::SimdFloatCmp            0      0.00%     85.19% # Class of committed instruction
system.switch_cpus_10.commit.op_class_0::SimdFloatCvt            0      0.00%     85.19% # Class of committed instruction
system.switch_cpus_10.commit.op_class_0::SimdFloatDiv            0      0.00%     85.19% # Class of committed instruction
system.switch_cpus_10.commit.op_class_0::SimdFloatMisc            0      0.00%     85.19% # Class of committed instruction
system.switch_cpus_10.commit.op_class_0::SimdFloatMult            0      0.00%     85.19% # Class of committed instruction
system.switch_cpus_10.commit.op_class_0::SimdFloatMultAcc            0      0.00%     85.19% # Class of committed instruction
system.switch_cpus_10.commit.op_class_0::SimdFloatSqrt            0      0.00%     85.19% # Class of committed instruction
system.switch_cpus_10.commit.op_class_0::SimdReduceAdd            0      0.00%     85.19% # Class of committed instruction
system.switch_cpus_10.commit.op_class_0::SimdReduceAlu            0      0.00%     85.19% # Class of committed instruction
system.switch_cpus_10.commit.op_class_0::SimdReduceCmp            0      0.00%     85.19% # Class of committed instruction
system.switch_cpus_10.commit.op_class_0::SimdFloatReduceAdd            0      0.00%     85.19% # Class of committed instruction
system.switch_cpus_10.commit.op_class_0::SimdFloatReduceCmp            0      0.00%     85.19% # Class of committed instruction
system.switch_cpus_10.commit.op_class_0::SimdAes            0      0.00%     85.19% # Class of committed instruction
system.switch_cpus_10.commit.op_class_0::SimdAesMix            0      0.00%     85.19% # Class of committed instruction
system.switch_cpus_10.commit.op_class_0::SimdSha1Hash            0      0.00%     85.19% # Class of committed instruction
system.switch_cpus_10.commit.op_class_0::SimdSha1Hash2            0      0.00%     85.19% # Class of committed instruction
system.switch_cpus_10.commit.op_class_0::SimdSha256Hash            0      0.00%     85.19% # Class of committed instruction
system.switch_cpus_10.commit.op_class_0::SimdSha256Hash2            0      0.00%     85.19% # Class of committed instruction
system.switch_cpus_10.commit.op_class_0::SimdShaSigma2            0      0.00%     85.19% # Class of committed instruction
system.switch_cpus_10.commit.op_class_0::SimdShaSigma3            0      0.00%     85.19% # Class of committed instruction
system.switch_cpus_10.commit.op_class_0::SimdPredAlu            0      0.00%     85.19% # Class of committed instruction
system.switch_cpus_10.commit.op_class_0::MemRead      6678189     10.18%     95.38% # Class of committed instruction
system.switch_cpus_10.commit.op_class_0::MemWrite      2815126      4.29%     99.67% # Class of committed instruction
system.switch_cpus_10.commit.op_class_0::FloatMemRead       108492      0.17%     99.83% # Class of committed instruction
system.switch_cpus_10.commit.op_class_0::FloatMemWrite       108492      0.17%    100.00% # Class of committed instruction
system.switch_cpus_10.commit.op_class_0::IprAccess            0      0.00%    100.00% # Class of committed instruction
system.switch_cpus_10.commit.op_class_0::InstPrefetch            0      0.00%    100.00% # Class of committed instruction
system.switch_cpus_10.commit.op_class_0::total     65570779                       # Class of committed instruction
system.switch_cpus_10.commit.refs             9710299                       # Number of memory references committed
system.switch_cpus_10.commit.swp_count              0                       # Number of s/w prefetches committed
system.switch_cpus_10.commit.vec_insts              0                       # Number of committed Vector instructions.
system.switch_cpus_10.committedInsts         45206309                       # Number of Instructions Simulated
system.switch_cpus_10.committedOps           65570779                       # Number of Ops (including micro ops) Simulated
system.switch_cpus_10.cpi                    1.318705                       # CPI: Cycles Per Instruction
system.switch_cpus_10.cpi_total              1.318705                       # CPI: Total CPI of All Threads
system.switch_cpus_10.decode.BlockedCycles     12855313                       # Number of cycles decode is blocked
system.switch_cpus_10.decode.DecodedInsts    157874986                       # Number of instructions handled by decode
system.switch_cpus_10.decode.IdleCycles      21181561                       # Number of cycles decode is idle
system.switch_cpus_10.decode.RunCycles       23136940                       # Number of cycles decode is running
system.switch_cpus_10.decode.SquashCycles      1859911                       # Number of cycles decode is squashing
system.switch_cpus_10.decode.UnblockCycles       578594                       # Number of cycles decode is unblocking
system.switch_cpus_10.dtb.rdAccesses         13189183                       # TLB accesses on read requests
system.switch_cpus_10.dtb.rdMisses                925                       # TLB misses on read requests
system.switch_cpus_10.dtb.wrAccesses          5117012                       # TLB accesses on write requests
system.switch_cpus_10.dtb.wrMisses                221                       # TLB misses on write requests
system.switch_cpus_10.fetch.Branches         13514313                       # Number of branches that fetch encountered
system.switch_cpus_10.fetch.CacheLines       12908446                       # Number of cache lines fetched
system.switch_cpus_10.fetch.Cycles           31367363                       # Number of cycles fetch has run and was not squashing or blocked
system.switch_cpus_10.fetch.IcacheSquashes       827939                       # Number of outstanding Icache misses that were squashed
system.switch_cpus_10.fetch.IcacheWaitRetryStallCycles          132                       # Number of stall cycles due to full MSHR
system.switch_cpus_10.fetch.Insts           115080941                       # Number of instructions fetch has processed
system.switch_cpus_10.fetch.MiscStallCycles          494                       # Number of cycles fetch has spent waiting on interrupts, or bad addresses, or out of MSHRs
system.switch_cpus_10.fetch.SquashCycles      3719822                       # Number of cycles fetch has spent squashing
system.switch_cpus_10.fetch.branchRate       0.226698                       # Number of branch fetches per cycle
system.switch_cpus_10.fetch.icacheStallCycles     26384424                       # Number of cycles fetch is stalled on an Icache miss
system.switch_cpus_10.fetch.predictedBranches      4409915                       # Number of branches that fetch has predicted taken
system.switch_cpus_10.fetch.rate             1.930442                       # Number of inst fetches per cycle
system.switch_cpus_10.fetch.rateDist::samples     59612324                       # Number of instructions fetched each cycle (Total)
system.switch_cpus_10.fetch.rateDist::mean     2.800418                       # Number of instructions fetched each cycle (Total)
system.switch_cpus_10.fetch.rateDist::stdev     3.512344                       # Number of instructions fetched each cycle (Total)
system.switch_cpus_10.fetch.rateDist::underflows            0      0.00%      0.00% # Number of instructions fetched each cycle (Total)
system.switch_cpus_10.fetch.rateDist::0      33144977     55.60%     55.60% # Number of instructions fetched each cycle (Total)
system.switch_cpus_10.fetch.rateDist::1       1570269      2.63%     58.24% # Number of instructions fetched each cycle (Total)
system.switch_cpus_10.fetch.rateDist::2       1662076      2.79%     61.02% # Number of instructions fetched each cycle (Total)
system.switch_cpus_10.fetch.rateDist::3       1608514      2.70%     63.72% # Number of instructions fetched each cycle (Total)
system.switch_cpus_10.fetch.rateDist::4       1503232      2.52%     66.24% # Number of instructions fetched each cycle (Total)
system.switch_cpus_10.fetch.rateDist::5       2116598      3.55%     69.79% # Number of instructions fetched each cycle (Total)
system.switch_cpus_10.fetch.rateDist::6       1134505      1.90%     71.70% # Number of instructions fetched each cycle (Total)
system.switch_cpus_10.fetch.rateDist::7       1160710      1.95%     73.64% # Number of instructions fetched each cycle (Total)
system.switch_cpus_10.fetch.rateDist::8      15711443     26.36%    100.00% # Number of instructions fetched each cycle (Total)
system.switch_cpus_10.fetch.rateDist::overflows            0      0.00%    100.00% # Number of instructions fetched each cycle (Total)
system.switch_cpus_10.fetch.rateDist::min_value            0                       # Number of instructions fetched each cycle (Total)
system.switch_cpus_10.fetch.rateDist::max_value            8                       # Number of instructions fetched each cycle (Total)
system.switch_cpus_10.fetch.rateDist::total     59612324                       # Number of instructions fetched each cycle (Total)
system.switch_cpus_10.fp_regfile_reads         996511                       # number of floating regfile reads
system.switch_cpus_10.fp_regfile_writes        890290                       # number of floating regfile writes
system.switch_cpus_10.idleCycles                 1462                       # Total number of cycles that the CPU has spent unscheduled due to idling
system.switch_cpus_10.iew.branchMispredicts      2474435                       # Number of branch mispredicts detected at execute
system.switch_cpus_10.iew.exec_branches       7806923                       # Number of branches executed
system.switch_cpus_10.iew.exec_nop                  0                       # number of nop insts executed
system.switch_cpus_10.iew.exec_rate          1.728906                       # Inst execution rate
system.switch_cpus_10.iew.exec_refs          18373980                       # number of memory reference insts executed
system.switch_cpus_10.iew.exec_stores         5114204                       # Number of stores executed
system.switch_cpus_10.iew.exec_swp                  0                       # number of swp insts executed
system.switch_cpus_10.iew.iewBlockCycles      9017476                       # Number of cycles IEW is blocking
system.switch_cpus_10.iew.iewDispLoadInsts     15710176                       # Number of dispatched load instructions
system.switch_cpus_10.iew.iewDispNonSpecInsts            0                       # Number of dispatched non-speculative instructions
system.switch_cpus_10.iew.iewDispSquashedInsts       141234                       # Number of squashed instructions skipped by dispatch
system.switch_cpus_10.iew.iewDispStoreInsts      7524468                       # Number of dispatched store instructions
system.switch_cpus_10.iew.iewDispatchedInsts    136418958                       # Number of instructions dispatched to IQ
system.switch_cpus_10.iew.iewExecLoadInsts     13259776                       # Number of load instructions executed
system.switch_cpus_10.iew.iewExecSquashedInsts      2898532                       # Number of squashed instructions skipped in execute
system.switch_cpus_10.iew.iewExecutedInsts    103066615                       # Number of executed instructions
system.switch_cpus_10.iew.iewIQFullEvents         8611                       # Number of times the IQ has become full, causing a stall
system.switch_cpus_10.iew.iewIdleCycles             0                       # Number of cycles IEW is idle
system.switch_cpus_10.iew.iewLSQFullEvents      1678200                       # Number of times the LSQ has become full, causing a stall
system.switch_cpus_10.iew.iewSquashCycles      1859911                       # Number of cycles IEW is squashing
system.switch_cpus_10.iew.iewUnblockCycles      1681432                       # Number of cycles IEW is unblocking
system.switch_cpus_10.iew.lsq.thread0.blockedLoads            0                       # Number of blocked loads due to partial load-store forwarding
system.switch_cpus_10.iew.lsq.thread0.cacheBlocked         3093                       # Number of times an access to memory failed due to the cache being blocked
system.switch_cpus_10.iew.lsq.thread0.forwLoads       725930                       # Number of loads that had data forwarded from stores
system.switch_cpus_10.iew.lsq.thread0.ignoredResponses         1842                       # Number of memory responses ignored because the instruction is squashed
system.switch_cpus_10.iew.lsq.thread0.invAddrLoads            0                       # Number of loads ignored due to an invalid address
system.switch_cpus_10.iew.lsq.thread0.invAddrSwpfs            0                       # Number of software prefetches ignored due to an invalid address
system.switch_cpus_10.iew.lsq.thread0.memOrderViolation         4972                       # Number of memory ordering violations
system.switch_cpus_10.iew.lsq.thread0.rescheduledLoads         5270                       # Number of loads that were rescheduled
system.switch_cpus_10.iew.lsq.thread0.squashedLoads      8923495                       # Number of loads squashed
system.switch_cpus_10.iew.lsq.thread0.squashedStores      4600850                       # Number of stores squashed
system.switch_cpus_10.iew.memOrderViolationEvents         4972                       # Number of memory order violations
system.switch_cpus_10.iew.predictedNotTakenIncorrect      2088092                       # Number of branches that were predicted not taken incorrectly
system.switch_cpus_10.iew.predictedTakenIncorrect       386343                       # Number of branches that were predicted taken incorrectly
system.switch_cpus_10.iew.wb_consumers      140847049                       # num instructions consuming a value
system.switch_cpus_10.iew.wb_count          100535113                       # cumulative count of insts written-back
system.switch_cpus_10.iew.wb_fanout          0.566959                       # average fanout of values written-back
system.switch_cpus_10.iew.wb_producers       79854537                       # num instructions producing a value
system.switch_cpus_10.iew.wb_rate            1.686441                       # insts written-back per cycle
system.switch_cpus_10.iew.wb_sent           101584426                       # cumulative count of insts sent to commit
system.switch_cpus_10.int_regfile_reads     165406128                       # number of integer regfile reads
system.switch_cpus_10.int_regfile_writes     88935121                       # number of integer regfile writes
system.switch_cpus_10.ipc                    0.758320                       # IPC: Instructions Per Cycle
system.switch_cpus_10.ipc_total              0.758320                       # IPC: Total IPC of All Threads
system.switch_cpus_10.iq.FU_type_0::No_OpClass       511772      0.48%      0.48% # Type of FU issued
system.switch_cpus_10.iq.FU_type_0::IntAlu     84303185     79.56%     80.04% # Type of FU issued
system.switch_cpus_10.iq.FU_type_0::IntMult      1665482      1.57%     81.61% # Type of FU issued
system.switch_cpus_10.iq.FU_type_0::IntDiv            0      0.00%     81.61% # Type of FU issued
system.switch_cpus_10.iq.FU_type_0::FloatAdd            0      0.00%     81.61% # Type of FU issued
system.switch_cpus_10.iq.FU_type_0::FloatCmp            0      0.00%     81.61% # Type of FU issued
system.switch_cpus_10.iq.FU_type_0::FloatCvt            0      0.00%     81.61% # Type of FU issued
system.switch_cpus_10.iq.FU_type_0::FloatMult            0      0.00%     81.61% # Type of FU issued
system.switch_cpus_10.iq.FU_type_0::FloatMultAcc            0      0.00%     81.61% # Type of FU issued
system.switch_cpus_10.iq.FU_type_0::FloatDiv            0      0.00%     81.61% # Type of FU issued
system.switch_cpus_10.iq.FU_type_0::FloatMisc            0      0.00%     81.61% # Type of FU issued
system.switch_cpus_10.iq.FU_type_0::FloatSqrt            0      0.00%     81.61% # Type of FU issued
system.switch_cpus_10.iq.FU_type_0::SimdAdd            0      0.00%     81.61% # Type of FU issued
system.switch_cpus_10.iq.FU_type_0::SimdAddAcc            0      0.00%     81.61% # Type of FU issued
system.switch_cpus_10.iq.FU_type_0::SimdAlu            0      0.00%     81.61% # Type of FU issued
system.switch_cpus_10.iq.FU_type_0::SimdCmp            0      0.00%     81.61% # Type of FU issued
system.switch_cpus_10.iq.FU_type_0::SimdCvt            0      0.00%     81.61% # Type of FU issued
system.switch_cpus_10.iq.FU_type_0::SimdMisc            0      0.00%     81.61% # Type of FU issued
system.switch_cpus_10.iq.FU_type_0::SimdMult            0      0.00%     81.61% # Type of FU issued
system.switch_cpus_10.iq.FU_type_0::SimdMultAcc            0      0.00%     81.61% # Type of FU issued
system.switch_cpus_10.iq.FU_type_0::SimdShift            0      0.00%     81.61% # Type of FU issued
system.switch_cpus_10.iq.FU_type_0::SimdShiftAcc            0      0.00%     81.61% # Type of FU issued
system.switch_cpus_10.iq.FU_type_0::SimdDiv            0      0.00%     81.61% # Type of FU issued
system.switch_cpus_10.iq.FU_type_0::SimdSqrt            0      0.00%     81.61% # Type of FU issued
system.switch_cpus_10.iq.FU_type_0::SimdFloatAdd            0      0.00%     81.61% # Type of FU issued
system.switch_cpus_10.iq.FU_type_0::SimdFloatAlu            0      0.00%     81.61% # Type of FU issued
system.switch_cpus_10.iq.FU_type_0::SimdFloatCmp            0      0.00%     81.61% # Type of FU issued
system.switch_cpus_10.iq.FU_type_0::SimdFloatCvt            0      0.00%     81.61% # Type of FU issued
system.switch_cpus_10.iq.FU_type_0::SimdFloatDiv            0      0.00%     81.61% # Type of FU issued
system.switch_cpus_10.iq.FU_type_0::SimdFloatMisc            0      0.00%     81.61% # Type of FU issued
system.switch_cpus_10.iq.FU_type_0::SimdFloatMult            0      0.00%     81.61% # Type of FU issued
system.switch_cpus_10.iq.FU_type_0::SimdFloatMultAcc            0      0.00%     81.61% # Type of FU issued
system.switch_cpus_10.iq.FU_type_0::SimdFloatSqrt            0      0.00%     81.61% # Type of FU issued
system.switch_cpus_10.iq.FU_type_0::SimdReduceAdd            0      0.00%     81.61% # Type of FU issued
system.switch_cpus_10.iq.FU_type_0::SimdReduceAlu            0      0.00%     81.61% # Type of FU issued
system.switch_cpus_10.iq.FU_type_0::SimdReduceCmp            0      0.00%     81.61% # Type of FU issued
system.switch_cpus_10.iq.FU_type_0::SimdFloatReduceAdd            0      0.00%     81.61% # Type of FU issued
system.switch_cpus_10.iq.FU_type_0::SimdFloatReduceCmp            0      0.00%     81.61% # Type of FU issued
system.switch_cpus_10.iq.FU_type_0::SimdAes            0      0.00%     81.61% # Type of FU issued
system.switch_cpus_10.iq.FU_type_0::SimdAesMix            0      0.00%     81.61% # Type of FU issued
system.switch_cpus_10.iq.FU_type_0::SimdSha1Hash            0      0.00%     81.61% # Type of FU issued
system.switch_cpus_10.iq.FU_type_0::SimdSha1Hash2            0      0.00%     81.61% # Type of FU issued
system.switch_cpus_10.iq.FU_type_0::SimdSha256Hash            0      0.00%     81.61% # Type of FU issued
system.switch_cpus_10.iq.FU_type_0::SimdSha256Hash2            0      0.00%     81.61% # Type of FU issued
system.switch_cpus_10.iq.FU_type_0::SimdShaSigma2            0      0.00%     81.61% # Type of FU issued
system.switch_cpus_10.iq.FU_type_0::SimdShaSigma3            0      0.00%     81.61% # Type of FU issued
system.switch_cpus_10.iq.FU_type_0::SimdPredAlu            0      0.00%     81.61% # Type of FU issued
system.switch_cpus_10.iq.FU_type_0::MemRead     12856640     12.13%     93.75% # Type of FU issued
system.switch_cpus_10.iq.FU_type_0::MemWrite      4555105      4.30%     98.04% # Type of FU issued
system.switch_cpus_10.iq.FU_type_0::FloatMemRead      1070942      1.01%     99.05% # Type of FU issued
system.switch_cpus_10.iq.FU_type_0::FloatMemWrite      1002021      0.95%    100.00% # Type of FU issued
system.switch_cpus_10.iq.FU_type_0::IprAccess            0      0.00%    100.00% # Type of FU issued
system.switch_cpus_10.iq.FU_type_0::InstPrefetch            0      0.00%    100.00% # Type of FU issued
system.switch_cpus_10.iq.FU_type_0::total    105965147                       # Type of FU issued
system.switch_cpus_10.iq.fp_alu_accesses      2406497                       # Number of floating point alu accesses
system.switch_cpus_10.iq.fp_inst_queue_reads      4503681                       # Number of floating instruction queue reads
system.switch_cpus_10.iq.fp_inst_queue_wakeup_accesses      1883240                       # Number of floating instruction queue wakeup accesses
system.switch_cpus_10.iq.fp_inst_queue_writes      3980786                       # Number of floating instruction queue writes
system.switch_cpus_10.iq.fu_busy_cnt          1346654                       # FU busy when requested
system.switch_cpus_10.iq.fu_busy_rate        0.012708                       # FU busy rate (busy events/executed inst)
system.switch_cpus_10.iq.fu_full::No_OpClass            0      0.00%      0.00% # attempts to use FU when none available
system.switch_cpus_10.iq.fu_full::IntAlu       819191     60.83%     60.83% # attempts to use FU when none available
system.switch_cpus_10.iq.fu_full::IntMult            0      0.00%     60.83% # attempts to use FU when none available
system.switch_cpus_10.iq.fu_full::IntDiv            0      0.00%     60.83% # attempts to use FU when none available
system.switch_cpus_10.iq.fu_full::FloatAdd            0      0.00%     60.83% # attempts to use FU when none available
system.switch_cpus_10.iq.fu_full::FloatCmp            0      0.00%     60.83% # attempts to use FU when none available
system.switch_cpus_10.iq.fu_full::FloatCvt            0      0.00%     60.83% # attempts to use FU when none available
system.switch_cpus_10.iq.fu_full::FloatMult            0      0.00%     60.83% # attempts to use FU when none available
system.switch_cpus_10.iq.fu_full::FloatMultAcc            0      0.00%     60.83% # attempts to use FU when none available
system.switch_cpus_10.iq.fu_full::FloatDiv            0      0.00%     60.83% # attempts to use FU when none available
system.switch_cpus_10.iq.fu_full::FloatMisc            0      0.00%     60.83% # attempts to use FU when none available
system.switch_cpus_10.iq.fu_full::FloatSqrt            0      0.00%     60.83% # attempts to use FU when none available
system.switch_cpus_10.iq.fu_full::SimdAdd            0      0.00%     60.83% # attempts to use FU when none available
system.switch_cpus_10.iq.fu_full::SimdAddAcc            0      0.00%     60.83% # attempts to use FU when none available
system.switch_cpus_10.iq.fu_full::SimdAlu            0      0.00%     60.83% # attempts to use FU when none available
system.switch_cpus_10.iq.fu_full::SimdCmp            0      0.00%     60.83% # attempts to use FU when none available
system.switch_cpus_10.iq.fu_full::SimdCvt            0      0.00%     60.83% # attempts to use FU when none available
system.switch_cpus_10.iq.fu_full::SimdMisc            0      0.00%     60.83% # attempts to use FU when none available
system.switch_cpus_10.iq.fu_full::SimdMult            0      0.00%     60.83% # attempts to use FU when none available
system.switch_cpus_10.iq.fu_full::SimdMultAcc            0      0.00%     60.83% # attempts to use FU when none available
system.switch_cpus_10.iq.fu_full::SimdShift            0      0.00%     60.83% # attempts to use FU when none available
system.switch_cpus_10.iq.fu_full::SimdShiftAcc            0      0.00%     60.83% # attempts to use FU when none available
system.switch_cpus_10.iq.fu_full::SimdDiv            0      0.00%     60.83% # attempts to use FU when none available
system.switch_cpus_10.iq.fu_full::SimdSqrt            0      0.00%     60.83% # attempts to use FU when none available
system.switch_cpus_10.iq.fu_full::SimdFloatAdd            0      0.00%     60.83% # attempts to use FU when none available
system.switch_cpus_10.iq.fu_full::SimdFloatAlu            0      0.00%     60.83% # attempts to use FU when none available
system.switch_cpus_10.iq.fu_full::SimdFloatCmp            0      0.00%     60.83% # attempts to use FU when none available
system.switch_cpus_10.iq.fu_full::SimdFloatCvt            0      0.00%     60.83% # attempts to use FU when none available
system.switch_cpus_10.iq.fu_full::SimdFloatDiv            0      0.00%     60.83% # attempts to use FU when none available
system.switch_cpus_10.iq.fu_full::SimdFloatMisc            0      0.00%     60.83% # attempts to use FU when none available
system.switch_cpus_10.iq.fu_full::SimdFloatMult            0      0.00%     60.83% # attempts to use FU when none available
system.switch_cpus_10.iq.fu_full::SimdFloatMultAcc            0      0.00%     60.83% # attempts to use FU when none available
[...]
system.cpu1.l2cache.ReadSharedReq_mshr_misses::.switch_cpus_11.data        28891                       # number of ReadSharedReq MSHR misses
system.cpu1.l2cache.ReadSharedReq_mshr_misses::total        29989                       # number of ReadSharedReq MSHR misses
system.cpu1.l2cache.ReadSharedReq_mshr_miss_latency::.switch_cpus1.data    134910759                       # number of ReadSharedReq MSHR miss cycles
system.cpu1.l2cache.ReadSharedReq_mshr_miss_latency::.switch_cpus_11.data   3511373520                       # number of ReadSharedReq MSHR miss cycles
system.cpu1.l2cache.ReadSharedReq_mshr_miss_latency::total   3646284279                       # number of ReadSharedReq MSHR miss cycles
system.cpu1.l2cache.ReadSharedReq_mshr_miss_rate::.switch_cpus1.data     0.949827                       # mshr miss rate for ReadSharedReq accesses
system.cpu1.l2cache.ReadSharedReq_mshr_miss_rate::.switch_cpus_11.data     0.522337                       # mshr miss rate for ReadSharedReq accesses
system.cpu1.l2cache.ReadSharedReq_mshr_miss_rate::total     0.531089                       # mshr miss rate for ReadSharedReq accesses
system.cpu1.l2cache.ReadSharedReq_avg_mshr_miss_latency::.switch_cpus1.data 122869.543716                       # average ReadSharedReq mshr miss latency
system.cpu1.l2cache.ReadSharedReq_avg_mshr_miss_latency::.switch_cpus_11.data 121538.663252                       # average ReadSharedReq mshr miss latency
system.cpu1.l2cache.ReadSharedReq_avg_mshr_miss_latency::total 121587.391343                       # average ReadSharedReq mshr miss latency
system.cpu1.l2cache.tags.pwrStateResidencyTicks::UNDEFINED 1320319492098                       # Cumulative time (in ticks) in various power states
system.cpu1.l2cache.tags.tagsinuse          76.164879                       # Cycle average of tags in use
system.cpu1.l2cache.tags.total_refs            112959                       # Total number of references to valid blocks.
system.cpu1.l2cache.tags.sampled_refs           30301                       # Sample count of references to valid blocks.
system.cpu1.l2cache.tags.avg_refs            3.727897                       # Average number of references to valid blocks.
system.cpu1.l2cache.tags.warmup_cycle    1293351708033                       # Cycle when the warmup percentage was hit.
system.cpu1.l2cache.tags.occ_blocks::.cpu1.inst     0.003607                       # Average occupied blocks per requestor
system.cpu1.l2cache.tags.occ_blocks::.cpu1.data     0.020425                       # Average occupied blocks per requestor
system.cpu1.l2cache.tags.occ_blocks::.switch_cpus1.inst     0.677211                       # Average occupied blocks per requestor
system.cpu1.l2cache.tags.occ_blocks::.switch_cpus1.data    10.200303                       # Average occupied blocks per requestor
system.cpu1.l2cache.tags.occ_blocks::.switch_cpus_11.inst     0.188083                       # Average occupied blocks per requestor
system.cpu1.l2cache.tags.occ_blocks::.switch_cpus_11.data    65.075250                       # Average occupied blocks per requestor
system.cpu1.l2cache.tags.occ_percent::.cpu1.inst     0.000001                       # Average percentage of cache occupancy
system.cpu1.l2cache.tags.occ_percent::.cpu1.data     0.000005                       # Average percentage of cache occupancy
system.cpu1.l2cache.tags.occ_percent::.switch_cpus1.inst     0.000165                       # Average percentage of cache occupancy
system.cpu1.l2cache.tags.occ_percent::.switch_cpus1.data     0.002490                       # Average percentage of cache occupancy
system.cpu1.l2cache.tags.occ_percent::.switch_cpus_11.inst     0.000046                       # Average percentage of cache occupancy
system.cpu1.l2cache.tags.occ_percent::.switch_cpus_11.data     0.015888                       # Average percentage of cache occupancy
system.cpu1.l2cache.tags.occ_percent::total     0.018595                       # Average percentage of cache occupancy
system.cpu1.l2cache.tags.occ_task_id_blocks::1024         4096                       # Occupied blocks per task id
system.cpu1.l2cache.tags.age_task_id_blocks_1024::0           13                       # Occupied blocks per task id
system.cpu1.l2cache.tags.age_task_id_blocks_1024::1           57                       # Occupied blocks per task id
system.cpu1.l2cache.tags.age_task_id_blocks_1024::2         1081                       # Occupied blocks per task id
system.cpu1.l2cache.tags.age_task_id_blocks_1024::3         2437                       # Occupied blocks per task id
system.cpu1.l2cache.tags.age_task_id_blocks_1024::4          508                       # Occupied blocks per task id
system.cpu1.l2cache.tags.occ_task_id_percent::1024            1                       # Percentage of cache occupancy per task id
system.cpu1.l2cache.tags.tag_accesses         1837741                       # Number of tag accesses
system.cpu1.l2cache.tags.data_accesses        1837741                       # Number of data accesses
system.cpu1.toL2Bus.pwrStateResidencyTicks::UNDEFINED 1320319492098                       # Cumulative time (in ticks) in various power states
system.cpu1.toL2Bus.trans_dist::ReadResp        56754                       # Transaction distribution
system.cpu1.toL2Bus.trans_dist::WritebackDirty          185                       # Transaction distribution
system.cpu1.toL2Bus.trans_dist::CleanEvict        82354                       # Transaction distribution
system.cpu1.toL2Bus.trans_dist::ReadExReq          148                       # Transaction distribution
system.cpu1.toL2Bus.trans_dist::ReadExResp          148                       # Transaction distribution
system.cpu1.toL2Bus.trans_dist::ReadCleanReq          287                       # Transaction distribution
system.cpu1.toL2Bus.trans_dist::ReadSharedReq        56467                       # Transaction distribution
system.cpu1.toL2Bus.pkt_count_system.cpu1.icache.mem_side::system.cpu1.l2cache.cpu_side          574                       # Packet count per connected master and slave (bytes)
system.cpu1.toL2Bus.pkt_count_system.cpu1.dcache.mem_side::system.cpu1.l2cache.cpu_side       169333                       # Packet count per connected master and slave (bytes)
system.cpu1.toL2Bus.pkt_count::total           169907                       # Packet count per connected master and slave (bytes)
system.cpu1.toL2Bus.pkt_size_system.cpu1.icache.mem_side::system.cpu1.l2cache.cpu_side        18368                       # Cumulative packet size per connected master and slave (bytes)
system.cpu1.toL2Bus.pkt_size_system.cpu1.dcache.mem_side::system.cpu1.l2cache.cpu_side      3634688                       # Cumulative packet size per connected master and slave (bytes)
system.cpu1.toL2Bus.pkt_size::total           3653056                       # Cumulative packet size per connected master and slave (bytes)
system.cpu1.toL2Bus.snoops                      26436                       # Total snoops (count)
system.cpu1.toL2Bus.snoopTraffic                  512                       # Total snoop traffic (bytes)
system.cpu1.toL2Bus.snoop_fanout::samples        83338                       # Request fanout histogram
system.cpu1.toL2Bus.snoop_fanout::mean       0.006432                       # Request fanout histogram
system.cpu1.toL2Bus.snoop_fanout::stdev      0.079940                       # Request fanout histogram
system.cpu1.toL2Bus.snoop_fanout::underflows            0      0.00%      0.00% # Request fanout histogram
system.cpu1.toL2Bus.snoop_fanout::0             82802     99.36%     99.36% # Request fanout histogram
system.cpu1.toL2Bus.snoop_fanout::1               536      0.64%    100.00% # Request fanout histogram
system.cpu1.toL2Bus.snoop_fanout::2                 0      0.00%    100.00% # Request fanout histogram
system.cpu1.toL2Bus.snoop_fanout::3                 0      0.00%    100.00% # Request fanout histogram
system.cpu1.toL2Bus.snoop_fanout::4                 0      0.00%    100.00% # Request fanout histogram
system.cpu1.toL2Bus.snoop_fanout::overflows            0      0.00%    100.00% # Request fanout histogram
system.cpu1.toL2Bus.snoop_fanout::min_value            0                       # Request fanout histogram
system.cpu1.toL2Bus.snoop_fanout::max_value            1                       # Request fanout histogram
system.cpu1.toL2Bus.snoop_fanout::total         83338                       # Request fanout histogram
system.cpu1.toL2Bus.reqLayer0.occupancy      47269869                       # Layer occupancy (ticks)
system.cpu1.toL2Bus.reqLayer0.utilization          0.2                       # Layer utilization (%)
system.cpu1.toL2Bus.respLayer1.occupancy     70824114                       # Layer occupancy (ticks)
system.cpu1.toL2Bus.respLayer1.utilization          0.3                       # Layer utilization (%)
system.cpu1.toL2Bus.respLayer0.occupancy       357786                       # Layer occupancy (ticks)
system.cpu1.toL2Bus.respLayer0.utilization          0.0                       # Layer utilization (%)
system.switch_cpus_10.pwrStateResidencyTicks::OFF  26967784482                       # Cumulative time (in ticks) in various power states
system.switch_cpus_10.dtb.walker.pwrStateResidencyTicks::UNDEFINED 1320319492098                       # Cumulative time (in ticks) in various power states
system.switch_cpus_10.itb.walker.pwrStateResidencyTicks::UNDEFINED 1320319492098                       # Cumulative time (in ticks) in various power states
system.switch_cpus_11.pwrStateResidencyTicks::OFF  26967784482                       # Cumulative time (in ticks) in various power states
system.switch_cpus_11.dtb.walker.pwrStateResidencyTicks::UNDEFINED 1320319492098                       # Cumulative time (in ticks) in various power states
system.switch_cpus_11.itb.walker.pwrStateResidencyTicks::UNDEFINED 1320319492098                       # Cumulative time (in ticks) in various power states
system.cpu_voltage_domain.voltage                   1                       # Voltage in Volts
system.switch_cpus1.numPwrStateTransitions            1                       # Number of power state transitions
system.switch_cpus1.pwrStateResidencyTicks::UNDEFINED 1293351707616                       # Cumulative time (in ticks) in various power states
system.switch_cpus1.pwrStateResidencyTicks::OFF  26967784482                       # Cumulative time (in ticks) in various power states
system.switch_cpus1.dtb.walker.pwrStateResidencyTicks::UNDEFINED 1320319492098                       # Cumulative time (in ticks) in various power states
system.switch_cpus1.itb.walker.pwrStateResidencyTicks::UNDEFINED 1320319492098                       # Cumulative time (in ticks) in various power states
system.mem_ctrls.pwrStateResidencyTicks::UNDEFINED 1320319492098                       # Cumulative time (in ticks) in various power states
system.mem_ctrls.bytes_read::.cpu0.inst           128                       # Number of bytes read from this memory
system.mem_ctrls.bytes_read::.cpu1.inst            64                       # Number of bytes read from this memory
system.mem_ctrls.bytes_read::.cpu1.data            64                       # Number of bytes read from this memory
system.mem_ctrls.bytes_read::.switch_cpus0.inst        16960                       # Number of bytes read from this memory
system.mem_ctrls.bytes_read::.switch_cpus0.data        66176                       # Number of bytes read from this memory
system.mem_ctrls.bytes_read::.switch_cpus1.inst        12672                       # Number of bytes read from this memory
system.mem_ctrls.bytes_read::.switch_cpus1.data        71616                       # Number of bytes read from this memory
system.mem_ctrls.bytes_read::.switch_cpus_10.inst         4928                       # Number of bytes read from this memory
system.mem_ctrls.bytes_read::.switch_cpus_10.data       748928                       # Number of bytes read from this memory
system.mem_ctrls.bytes_read::.switch_cpus_11.inst         5632                       # Number of bytes read from this memory
system.mem_ctrls.bytes_read::.switch_cpus_11.data      1847744                       # Number of bytes read from this memory
system.mem_ctrls.bytes_read::total            2774912                       # Number of bytes read from this memory
system.mem_ctrls.bytes_inst_read::.cpu0.inst          128                       # Number of instructions bytes read from this memory
system.mem_ctrls.bytes_inst_read::.cpu1.inst           64                       # Number of instructions bytes read from this memory
system.mem_ctrls.bytes_inst_read::.switch_cpus0.inst        16960                       # Number of instructions bytes read from this memory
system.mem_ctrls.bytes_inst_read::.switch_cpus1.inst        12672                       # Number of instructions bytes read from this memory
system.mem_ctrls.bytes_inst_read::.switch_cpus_10.inst         4928                       # Number of instructions bytes read from this memory
system.mem_ctrls.bytes_inst_read::.switch_cpus_11.inst         5632                       # Number of instructions bytes read from this memory
system.mem_ctrls.bytes_inst_read::total         40384                       # Number of instructions bytes read from this memory
system.mem_ctrls.bytes_written::.switch_cpus1.data           64                       # Number of bytes written to this memory
system.mem_ctrls.bytes_written::total              64                       # Number of bytes written to this memory
system.mem_ctrls.num_reads::.cpu0.inst              2                       # Number of read requests responded to by this memory
system.mem_ctrls.num_reads::.cpu1.inst              1                       # Number of read requests responded to by this memory
system.mem_ctrls.num_reads::.cpu1.data              1                       # Number of read requests responded to by this memory
system.mem_ctrls.num_reads::.switch_cpus0.inst          265                       # Number of read requests responded to by this memory
system.mem_ctrls.num_reads::.switch_cpus0.data         1034                       # Number of read requests responded to by this memory
system.mem_ctrls.num_reads::.switch_cpus1.inst          198                       # Number of read requests responded to by this memory
system.mem_ctrls.num_reads::.switch_cpus1.data         1119                       # Number of read requests responded to by this memory
system.mem_ctrls.num_reads::.switch_cpus_10.inst           77                       # Number of read requests responded to by this memory
system.mem_ctrls.num_reads::.switch_cpus_10.data        11702                       # Number of read requests responded to by this memory
system.mem_ctrls.num_reads::.switch_cpus_11.inst           88                       # Number of read requests responded to by this memory
system.mem_ctrls.num_reads::.switch_cpus_11.data        28871                       # Number of read requests responded to by this memory
system.mem_ctrls.num_reads::total               43358                       # Number of read requests responded to by this memory
system.mem_ctrls.num_writes::.switch_cpus1.data            1                       # Number of write requests responded to by this memory
system.mem_ctrls.num_writes::total                  1                       # Number of write requests responded to by this memory
system.mem_ctrls.bw_read::.cpu0.inst             4746                       # Total read bandwidth from this memory (bytes/s)
system.mem_ctrls.bw_read::.cpu1.inst             2373                       # Total read bandwidth from this memory (bytes/s)
system.mem_ctrls.bw_read::.cpu1.data             2373                       # Total read bandwidth from this memory (bytes/s)
system.mem_ctrls.bw_read::.switch_cpus0.inst       628899                       # Total read bandwidth from this memory (bytes/s)
system.mem_ctrls.bw_read::.switch_cpus0.data      2453891                       # Total read bandwidth from this memory (bytes/s)
system.mem_ctrls.bw_read::.switch_cpus1.inst       469894                       # Total read bandwidth from this memory (bytes/s)
system.mem_ctrls.bw_read::.switch_cpus1.data      2655613                       # Total read bandwidth from this memory (bytes/s)
system.mem_ctrls.bw_read::.switch_cpus_10.inst       182737                       # Total read bandwidth from this memory (bytes/s)
system.mem_ctrls.bw_read::.switch_cpus_10.data     27771210                       # Total read bandwidth from this memory (bytes/s)
system.mem_ctrls.bw_read::.switch_cpus_11.inst       208842                       # Total read bandwidth from this memory (bytes/s)
system.mem_ctrls.bw_read::.switch_cpus_11.data     68516715                       # Total read bandwidth from this memory (bytes/s)
system.mem_ctrls.bw_read::total             102897292                       # Total read bandwidth from this memory (bytes/s)
system.mem_ctrls.bw_inst_read::.cpu0.inst         4746                       # Instruction read bandwidth from this memory (bytes/s)
system.mem_ctrls.bw_inst_read::.cpu1.inst         2373                       # Instruction read bandwidth from this memory (bytes/s)
system.mem_ctrls.bw_inst_read::.switch_cpus0.inst       628899                       # Instruction read bandwidth from this memory (bytes/s)
system.mem_ctrls.bw_inst_read::.switch_cpus1.inst       469894                       # Instruction read bandwidth from this memory (bytes/s)
system.mem_ctrls.bw_inst_read::.switch_cpus_10.inst       182737                       # Instruction read bandwidth from this memory (bytes/s)
system.mem_ctrls.bw_inst_read::.switch_cpus_11.inst       208842                       # Instruction read bandwidth from this memory (bytes/s)
system.mem_ctrls.bw_inst_read::total          1497490                       # Instruction read bandwidth from this memory (bytes/s)
system.mem_ctrls.bw_write::.switch_cpus1.data         2373                       # Write bandwidth from this memory (bytes/s)
system.mem_ctrls.bw_write::total                 2373                       # Write bandwidth from this memory (bytes/s)
system.mem_ctrls.bw_total::.cpu0.inst            4746                       # Total bandwidth to/from this memory (bytes/s)
system.mem_ctrls.bw_total::.cpu1.inst            2373                       # Total bandwidth to/from this memory (bytes/s)
system.mem_ctrls.bw_total::.cpu1.data            2373                       # Total bandwidth to/from this memory (bytes/s)
system.mem_ctrls.bw_total::.switch_cpus0.inst       628899                       # Total bandwidth to/from this memory (bytes/s)
system.mem_ctrls.bw_total::.switch_cpus0.data      2453891                       # Total bandwidth to/from this memory (bytes/s)
system.mem_ctrls.bw_total::.switch_cpus1.inst       469894                       # Total bandwidth to/from this memory (bytes/s)
system.mem_ctrls.bw_total::.switch_cpus1.data      2657986                       # Total bandwidth to/from this memory (bytes/s)
system.mem_ctrls.bw_total::.switch_cpus_10.inst       182737                       # Total bandwidth to/from this memory (bytes/s)
system.mem_ctrls.bw_total::.switch_cpus_10.data     27771210                       # Total bandwidth to/from this memory (bytes/s)
system.mem_ctrls.bw_total::.switch_cpus_11.inst       208842                       # Total bandwidth to/from this memory (bytes/s)
system.mem_ctrls.bw_total::.switch_cpus_11.data     68516715                       # Total bandwidth to/from this memory (bytes/s)
system.mem_ctrls.bw_total::total            102899665                       # Total bandwidth to/from this memory (bytes/s)
system.cpu_clk_domain.clock                       417                       # Clock period in ticks

---------- End Simulation Statistics   ----------
