
---------- Begin Simulation Statistics ----------
final_tick                               1315434208662                       # Number of ticks from beginning of simulation (restored from checkpoints and never reset)
host_inst_rate                                 159203                       # Simulator instruction rate (inst/s)
host_mem_usage                                4438272                       # Number of bytes of host memory used
host_op_rate                                   301469                       # Simulator op (including micro ops) rate (op/s)
host_seconds                                   596.64                       # Real time elapsed on the host
host_tick_rate                               37011278                       # Simulator tick rate (ticks/s)
sim_freq                                 1000000000000                       # Frequency of simulated ticks
sim_insts                                    94986967                       # Number of instructions simulated
sim_ops                                     179869104                       # Number of ops (including micro ops) simulated
sim_seconds                                  0.022083                       # Number of seconds simulated
sim_ticks                                 22082501046                       # Number of ticks simulated
system.cpu0.committedInsts                          2                       # Number of instructions committed
system.cpu0.committedOps                            3                       # Number of ops (including micro ops) committed
system.cpu0.dtb.rdAccesses                          2                       # TLB accesses on read requests
system.cpu0.dtb.rdMisses                            0                       # TLB misses on read requests
system.cpu0.dtb.wrAccesses                          0                       # TLB accesses on write requests
system.cpu0.dtb.wrMisses                            0                       # TLB misses on write requests
system.cpu0.idle_fraction                           0                       # Percentage of idle cycles
system.cpu0.itb.rdAccesses                          0                       # TLB accesses on read requests
system.cpu0.itb.rdMisses                            0                       # TLB misses on read requests
system.cpu0.itb.wrAccesses                          4                       # TLB accesses on write requests
system.cpu0.itb.wrMisses                            0                       # TLB misses on write requests
system.cpu0.not_idle_fraction                       1                       # Percentage of non-idle cycles
system.cpu0.numCycles                               5                       # number of cpu cycles simulated
system.cpu0.numWorkItemsCompleted                   0                       # number of work items this cpu completed
system.cpu0.numWorkItemsStarted                     0                       # number of work items this cpu started
system.cpu0.num_busy_cycles                         5                       # Number of busy cycles
system.cpu0.num_cc_register_writes                  2                       # number of times the CC registers were written
system.cpu0.num_conditional_control_insts            0                       # number of instructions that are conditional controls
system.cpu0.num_fp_alu_accesses                     0                       # Number of float alu accesses
system.cpu0.num_fp_insts                            0                       # number of float instructions
system.cpu0.num_fp_register_reads                   0                       # number of times the floating registers were read
system.cpu0.num_fp_register_writes                  0                       # number of times the floating registers were written
system.cpu0.num_func_calls                          0                       # number of times a function call or return occured
system.cpu0.num_idle_cycles                         0                       # Number of idle cycles
system.cpu0.num_int_alu_accesses                    3                       # Number of integer alu accesses
system.cpu0.num_int_insts                           3                       # number of integer instructions
system.cpu0.num_int_register_reads                  8                       # number of times the integer registers were read
system.cpu0.num_int_register_writes                 3                       # number of times the integer registers were written
system.cpu0.num_load_insts                          2                       # Number of load instructions
system.cpu0.num_mem_refs                            2                       # number of memory refs
system.cpu0.num_store_insts                         0                       # Number of store instructions
system.cpu0.num_vec_alu_accesses                    0                       # Number of vector alu accesses
system.cpu0.num_vec_insts                           0                       # number of vector instructions
system.cpu0.num_vec_register_reads                  0                       # number of times the vector registers were read
system.cpu0.num_vec_register_writes                 0                       # number of times the vector registers were written
system.cpu0.op_class::No_OpClass                    0      0.00%      0.00% # Class of executed instruction
system.cpu0.op_class::IntAlu                        1     33.33%     33.33% # Class of executed instruction
system.cpu0.op_class::IntMult                       0      0.00%     33.33% # Class of executed instruction
system.cpu0.op_class::IntDiv                        0      0.00%     33.33% # Class of executed instruction
system.cpu0.op_class::FloatAdd                      0      0.00%     33.33% # Class of executed instruction
system.cpu0.op_class::FloatCmp                      0      0.00%     33.33% # Class of executed instruction
system.cpu0.op_class::FloatCvt                      0      0.00%     33.33% # Class of executed instruction
system.cpu0.op_class::FloatMult                     0      0.00%     33.33% # Class of executed instruction
system.cpu0.op_class::FloatMultAcc                  0      0.00%     33.33% # Class of executed instruction
system.cpu0.op_class::FloatDiv                      0      0.00%     33.33% # Class of executed instruction
system.cpu0.op_class::FloatMisc                     0      0.00%     33.33% # Class of executed instruction
system.cpu0.op_class::FloatSqrt                     0      0.00%     33.33% # Class of executed instruction
system.cpu0.op_class::SimdAdd                       0      0.00%     33.33% # Class of executed instruction
system.cpu0.op_class::SimdAddAcc                    0      0.00%     33.33% # Class of executed instruction
system.cpu0.op_class::SimdAlu                       0      0.00%     33.33% # Class of executed instruction
system.cpu0.op_class::SimdCmp                       0      0.00%     33.33% # Class of executed instruction
system.cpu0.op_class::SimdCvt                       0      0.00%     33.33% # Class of executed instruction
system.cpu0.op_class::SimdMisc                      0      0.00%     33.33% # Class of executed instruction
system.cpu0.op_class::SimdMult                      0      0.00%     33.33% # Class of executed instruction
system.cpu0.op_class::SimdMultAcc                   0      0.00%     33.33% # Class of executed instruction
system.cpu0.op_class::SimdShift                     0      0.00%     33.33% # Class of executed instruction
system.cpu0.op_class::SimdShiftAcc                  0      0.00%     33.33% # Class of executed instruction
system.cpu0.op_class::SimdDiv                       0      0.00%     33.33% # Class of executed instruction
system.cpu0.op_class::SimdSqrt                      0      0.00%     33.33% # Class of executed instruction
system.cpu0.op_class::SimdFloatAdd                  0      0.00%     33.33% # Class of executed instruction
system.cpu0.op_class::SimdFloatAlu                  0      0.00%     33.33% # Class of executed instruction
system.cpu0.op_class::SimdFloatCmp                  0      0.00%     33.33% # Class of executed instruction
system.cpu0.op_class::SimdFloatCvt                  0      0.00%     33.33% # Class of executed instruction
system.cpu0.op_class::SimdFloatDiv                  0      0.00%     33.33% # Class of executed instruction
system.cpu0.op_class::SimdFloatMisc                 0      0.00%     33.33% # Class of executed instruction
system.cpu0.op_class::SimdFloatMult                 0      0.00%     33.33% # Class of executed instruction
system.cpu0.op_class::SimdFloatMultAcc              0      0.00%     33.33% # Class of executed instruction
system.cpu0.op_class::SimdFloatSqrt                 0      0.00%     33.33% # Class of executed instruction
system.cpu0.op_class::SimdReduceAdd                 0      0.00%     33.33% # Class of executed instruction
system.cpu0.op_class::SimdReduceAlu                 0      0.00%     33.33% # Class of executed instruction
system.cpu0.op_class::SimdReduceCmp                 0      0.00%     33.33% # Class of executed instruction
system.cpu0.op_class::SimdFloatReduceAdd            0      0.00%     33.33% # Class of executed instruction
system.cpu0.op_class::SimdFloatReduceCmp            0      0.00%     33.33% # Class of executed instruction
system.cpu0.op_class::SimdAes                       0      0.00%     33.33% # Class of executed instruction
system.cpu0.op_class::SimdAesMix                    0      0.00%     33.33% # Class of executed instruction
system.cpu0.op_class::SimdSha1Hash                  0      0.00%     33.33% # Class of executed instruction
system.cpu0.op_class::SimdSha1Hash2                 0      0.00%     33.33% # Class of executed instruction
system.cpu0.op_class::SimdSha256Hash                0      0.00%     33.33% # Class of executed instruction
system.cpu0.op_class::SimdSha256Hash2               0      0.00%     33.33% # Class of executed instruction
system.cpu0.op_class::SimdShaSigma2                 0      0.00%     33.33% # Class of executed instruction
system.cpu0.op_class::SimdShaSigma3                 0      0.00%     33.33% # Class of executed instruction
system.cpu0.op_class::SimdPredAlu                   0      0.00%     33.33% # Class of executed instruction
system.cpu0.op_class::MemRead                       2     66.67%    100.00% # Class of executed instruction
system.cpu0.op_class::MemWrite                      0      0.00%    100.00% # Class of executed instruction
system.cpu0.op_class::FloatMemRead                  0      0.00%    100.00% # Class of executed instruction
system.cpu0.op_class::FloatMemWrite                 0      0.00%    100.00% # Class of executed instruction
system.cpu0.op_class::IprAccess                     0      0.00%    100.00% # Class of executed instruction
system.cpu0.op_class::InstPrefetch                  0      0.00%    100.00% # Class of executed instruction
system.cpu0.op_class::total                         3                       # Class of executed instruction
system.cpu0.toL2Bus.snoop_filter.hit_multi_requests           22                       # Number of requests hitting in the snoop filter with multiple (>1) holders of the requested data.
system.cpu0.toL2Bus.snoop_filter.hit_multi_snoops            0                       # Number of snoops hitting in the snoop filter with multiple (>1) holders of the requested data.
system.cpu0.toL2Bus.snoop_filter.hit_single_requests        32602                       # Number of requests hitting in the snoop filter with a single holder of the requested data.
system.cpu0.toL2Bus.snoop_filter.hit_single_snoops            0                       # Number of snoops hitting in the snoop filter with a single holder of the requested data.
system.cpu0.toL2Bus.snoop_filter.tot_requests        66030                       # Total number of requests made to the snoop filter.
system.cpu0.toL2Bus.snoop_filter.tot_snoops            0                       # Total number of snoops made to the snoop filter.
system.cpu0.toL3Bus.snoop_filter.hit_multi_requests            0                       # Number of requests hitting in the snoop filter with multiple (>1) holders of the requested data.
system.cpu0.toL3Bus.snoop_filter.hit_multi_snoops            0                       # Number of snoops hitting in the snoop filter with multiple (>1) holders of the requested data.
system.cpu0.toL3Bus.snoop_filter.hit_single_requests            0                       # Number of requests hitting in the snoop filter with a single holder of the requested data.
system.cpu0.toL3Bus.snoop_filter.hit_single_snoops            0                       # Number of snoops hitting in the snoop filter with a single holder of the requested data.
system.cpu0.toL3Bus.snoop_filter.tot_requests         1786                       # Total number of requests made to the snoop filter.
system.cpu0.toL3Bus.snoop_filter.tot_snoops            0                       # Total number of snoops made to the snoop filter.
system.cpu0.workload.numSyscalls                    0                       # Number of system calls
system.cpu1.Branches                                1                       # Number of branches fetched
system.cpu1.committedInsts                          1                       # Number of instructions committed
system.cpu1.committedOps                            5                       # Number of ops (including micro ops) committed
system.cpu1.dtb.rdAccesses                          0                       # TLB accesses on read requests
system.cpu1.dtb.rdMisses                            0                       # TLB misses on read requests
system.cpu1.dtb.wrAccesses                          1                       # TLB accesses on write requests
system.cpu1.dtb.wrMisses                            0                       # TLB misses on write requests
system.cpu1.idle_fraction                           0                       # Percentage of idle cycles
system.cpu1.itb.rdAccesses                          0                       # TLB accesses on read requests
system.cpu1.itb.rdMisses                            0                       # TLB misses on read requests
system.cpu1.itb.wrAccesses                          2                       # TLB accesses on write requests
system.cpu1.itb.wrMisses                            0                       # TLB misses on write requests
system.cpu1.not_idle_fraction                       1                       # Percentage of non-idle cycles
system.cpu1.numCycles                               6                       # number of cpu cycles simulated
system.cpu1.numWorkItemsCompleted                   0                       # number of work items this cpu completed
system.cpu1.numWorkItemsStarted                     0                       # number of work items this cpu started
system.cpu1.num_busy_cycles                         6                       # Number of busy cycles
system.cpu1.num_conditional_control_insts            0                       # number of instructions that are conditional controls
system.cpu1.num_fp_alu_accesses                     0                       # Number of float alu accesses
system.cpu1.num_fp_insts                            0                       # number of float instructions
system.cpu1.num_fp_register_reads                   0                       # number of times the floating registers were read
system.cpu1.num_fp_register_writes                  0                       # number of times the floating registers were written
system.cpu1.num_func_calls                          1                       # number of times a function call or return occured
system.cpu1.num_idle_cycles                         0                       # Number of idle cycles
system.cpu1.num_int_alu_accesses                    5                       # Number of integer alu accesses
system.cpu1.num_int_insts                           5                       # number of integer instructions
system.cpu1.num_int_register_reads                  9                       # number of times the integer registers were read
system.cpu1.num_int_register_writes                 3                       # number of times the integer registers were written
system.cpu1.num_load_insts                          0                       # Number of load instructions
system.cpu1.num_mem_refs                            1                       # number of memory refs
system.cpu1.num_store_insts                         1                       # Number of store instructions
system.cpu1.num_vec_alu_accesses                    0                       # Number of vector alu accesses
system.cpu1.num_vec_insts                           0                       # number of vector instructions
system.cpu1.num_vec_register_reads                  0                       # number of times the vector registers were read
system.cpu1.num_vec_register_writes                 0                       # number of times the vector registers were written
system.cpu1.op_class::No_OpClass                    0      0.00%      0.00% # Class of executed instruction
system.cpu1.op_class::IntAlu                        4     80.00%     80.00% # Class of executed instruction
system.cpu1.op_class::IntMult                       0      0.00%     80.00% # Class of executed instruction
system.cpu1.op_class::IntDiv                        0      0.00%     80.00% # Class of executed instruction
system.cpu1.op_class::FloatAdd                      0      0.00%     80.00% # Class of executed instruction
system.cpu1.op_class::FloatCmp                      0      0.00%     80.00% # Class of executed instruction
system.cpu1.op_class::FloatCvt                      0      0.00%     80.00% # Class of executed instruction
system.cpu1.op_class::FloatMult                     0      0.00%     80.00% # Class of executed instruction
system.cpu1.op_class::FloatMultAcc                  0      0.00%     80.00% # Class of executed instruction
system.cpu1.op_class::FloatDiv                      0      0.00%     80.00% # Class of executed instruction
system.cpu1.op_class::FloatMisc                     0      0.00%     80.00% # Class of executed instruction
system.cpu1.op_class::FloatSqrt                     0      0.00%     80.00% # Class of executed instruction
system.cpu1.op_class::SimdAdd                       0      0.00%     80.00% # Class of executed instruction
system.cpu1.op_class::SimdAddAcc                    0      0.00%     80.00% # Class of executed instruction
system.cpu1.op_class::SimdAlu                       0      0.00%     80.00% # Class of executed instruction
system.cpu1.op_class::SimdCmp                       0      0.00%     80.00% # Class of executed instruction
system.cpu1.op_class::SimdCvt                       0      0.00%     80.00% # Class of executed instruction
system.cpu1.op_class::SimdMisc                      0      0.00%     80.00% # Class of executed instruction
system.cpu1.op_class::SimdMult                      0      0.00%     80.00% # Class of executed instruction
system.cpu1.op_class::SimdMultAcc                   0      0.00%     80.00% # Class of executed instruction
system.cpu1.op_class::SimdShift                     0      0.00%     80.00% # Class of executed instruction
system.cpu1.op_class::SimdShiftAcc                  0      0.00%     80.00% # Class of executed instruction
system.cpu1.op_class::SimdDiv                       0      0.00%     80.00% # Class of executed instruction
system.cpu1.op_class::SimdSqrt                      0      0.00%     80.00% # Class of executed instruction
system.cpu1.op_class::SimdFloatAdd                  0      0.00%     80.00% # Class of executed instruction
system.cpu1.op_class::SimdFloatAlu                  0      0.00%     80.00% # Class of executed instruction
system.cpu1.op_class::SimdFloatCmp                  0      0.00%     80.00% # Class of executed instruction
system.cpu1.op_class::SimdFloatCvt                  0      0.00%     80.00% # Class of executed instruction
system.cpu1.op_class::SimdFloatDiv                  0      0.00%     80.00% # Class of executed instruction
system.cpu1.op_class::SimdFloatMisc                 0      0.00%     80.00% # Class of executed instruction
system.cpu1.op_class::SimdFloatMult                 0      0.00%     80.00% # Class of executed instruction
system.cpu1.op_class::SimdFloatMultAcc              0      0.00%     80.00% # Class of executed instruction
system.cpu1.op_class::SimdFloatSqrt                 0      0.00%     80.00% # Class of executed instruction
system.cpu1.op_class::SimdReduceAdd                 0      0.00%     80.00% # Class of executed instruction
system.cpu1.op_class::SimdReduceAlu                 0      0.00%     80.00% # Class of executed instruction
system.cpu1.op_class::SimdReduceCmp                 0      0.00%     80.00% # Class of executed instruction
system.cpu1.op_class::SimdFloatReduceAdd            0      0.00%     80.00% # Class of executed instruction
system.cpu1.op_class::SimdFloatReduceCmp            0      0.00%     80.00% # Class of executed instruction
system.cpu1.op_class::SimdAes                       0      0.00%     80.00% # Class of executed instruction
system.cpu1.op_class::SimdAesMix                    0      0.00%     80.00% # Class of executed instruction
system.cpu1.op_class::SimdSha1Hash                  0      0.00%     80.00% # Class of executed instruction
system.cpu1.op_class::SimdSha1Hash2                 0      0.00%     80.00% # Class of executed instruction
system.cpu1.op_class::SimdSha256Hash                0      0.00%     80.00% # Class of executed instruction
system.cpu1.op_class::SimdSha256Hash2               0      0.00%     80.00% # Class of executed instruction
system.cpu1.op_class::SimdShaSigma2                 0      0.00%     80.00% # Class of executed instruction
system.cpu1.op_class::SimdShaSigma3                 0      0.00%     80.00% # Class of executed instruction
system.cpu1.op_class::SimdPredAlu                   0      0.00%     80.00% # Class of executed instruction
system.cpu1.op_class::MemRead                       0      0.00%     80.00% # Class of executed instruction
system.cpu1.op_class::MemWrite                      1     20.00%    100.00% # Class of executed instruction
system.cpu1.op_class::FloatMemRead                  0      0.00%    100.00% # Class of executed instruction
system.cpu1.op_class::FloatMemWrite                 0      0.00%    100.00% # Class of executed instruction
system.cpu1.op_class::IprAccess                     0      0.00%    100.00% # Class of executed instruction
system.cpu1.op_class::InstPrefetch                  0      0.00%    100.00% # Class of executed instruction
system.cpu1.op_class::total                         5                       # Class of executed instruction
system.cpu1.toL2Bus.snoop_filter.hit_multi_requests           47                       # Number of requests hitting in the snoop filter with multiple (>1) holders of the requested data.
system.cpu1.toL2Bus.snoop_filter.hit_multi_snoops            0                       # Number of snoops hitting in the snoop filter with multiple (>1) holders of the requested data.
system.cpu1.toL2Bus.snoop_filter.hit_single_requests        48549                       # Number of requests hitting in the snoop filter with a single holder of the requested data.
system.cpu1.toL2Bus.snoop_filter.hit_single_snoops          370                       # Number of snoops hitting in the snoop filter with a single holder of the requested data.
system.cpu1.toL2Bus.snoop_filter.tot_requests        97895                       # Total number of requests made to the snoop filter.
system.cpu1.toL2Bus.snoop_filter.tot_snoops          370                       # Total number of snoops made to the snoop filter.
system.cpu1.toL3Bus.snoop_filter.hit_multi_requests            0                       # Number of requests hitting in the snoop filter with multiple (>1) holders of the requested data.
system.cpu1.toL3Bus.snoop_filter.hit_multi_snoops            0                       # Number of snoops hitting in the snoop filter with multiple (>1) holders of the requested data.
system.cpu1.toL3Bus.snoop_filter.hit_single_requests        22046                       # Number of requests hitting in the snoop filter with a single holder of the requested data.
system.cpu1.toL3Bus.snoop_filter.hit_single_snoops           51                       # Number of snoops hitting in the snoop filter with a single holder of the requested data.
system.cpu1.toL3Bus.snoop_filter.tot_requests        48509                       # Total number of requests made to the snoop filter.
system.cpu1.toL3Bus.snoop_filter.tot_snoops           51                       # Total number of snoops made to the snoop filter.
system.cpu1.workload.numSyscalls                14637                       # Number of system calls
system.membus.snoop_filter.hit_multi_requests            0                       # Number of requests hitting in the snoop filter with multiple (>1) holders of the requested data.
system.membus.snoop_filter.hit_multi_snoops            0                       # Number of snoops hitting in the snoop filter with multiple (>1) holders of the requested data.
system.membus.snoop_filter.hit_single_requests           67                       # Number of requests hitting in the snoop filter with a single holder of the requested data.
system.membus.snoop_filter.hit_single_snoops            0                       # Number of snoops hitting in the snoop filter with a single holder of the requested data.
system.membus.snoop_filter.tot_requests         28298                       # Total number of requests made to the snoop filter.
system.membus.snoop_filter.tot_snoops               0                       # Total number of snoops made to the snoop filter.
system.switch_cpus0.Branches                   162507                       # Number of branches fetched
system.switch_cpus0.committedInsts            1000002                       # Number of instructions committed
system.switch_cpus0.committedOps              1648564                       # Number of ops (including micro ops) committed
system.switch_cpus0.dtb.rdAccesses             172918                       # TLB accesses on read requests
system.switch_cpus0.dtb.rdMisses                   14                       # TLB misses on read requests
system.switch_cpus0.dtb.wrAccesses              33416                       # TLB accesses on write requests
system.switch_cpus0.dtb.wrMisses                    1                       # TLB misses on write requests
system.switch_cpus0.idle_fraction            0.000000                       # Percentage of idle cycles
system.switch_cpus0.itb.rdAccesses                  0                       # TLB accesses on read requests
system.switch_cpus0.itb.rdMisses                    0                       # TLB misses on read requests
system.switch_cpus0.itb.wrAccesses            1220322                       # TLB accesses on write requests
system.switch_cpus0.itb.wrMisses                   24                       # TLB misses on write requests
system.switch_cpus0.not_idle_fraction        1.000000                       # Percentage of non-idle cycles
system.switch_cpus0.numCycles                 4465210                       # number of cpu cycles simulated
system.switch_cpus0.numWorkItemsCompleted            0                       # number of work items this cpu completed
system.switch_cpus0.numWorkItemsStarted             0                       # number of work items this cpu started
system.switch_cpus0.num_busy_cycles      4465209.494081                       # Number of busy cycles
system.switch_cpus0.num_cc_register_reads      1408064                       # number of times the CC registers were read
system.switch_cpus0.num_cc_register_writes      1289303                       # number of times the CC registers were written
system.switch_cpus0.num_conditional_control_insts       154232                       # number of instructions that are conditional controls
system.switch_cpus0.num_fp_alu_accesses           494                       # Number of float alu accesses
system.switch_cpus0.num_fp_insts                  494                       # number of float instructions
system.switch_cpus0.num_fp_register_reads          250                       # number of times the floating registers were read
system.switch_cpus0.num_fp_register_writes          244                       # number of times the floating registers were written
system.switch_cpus0.num_func_calls                392                       # number of times a function call or return occured
system.switch_cpus0.num_idle_cycles          0.505919                       # Number of idle cycles
system.switch_cpus0.num_int_alu_accesses      1635196                       # Number of integer alu accesses
system.switch_cpus0.num_int_insts             1635196                       # number of integer instructions
system.switch_cpus0.num_int_register_reads      2870305                       # number of times the integer registers were read
system.switch_cpus0.num_int_register_writes      1449566                       # number of times the integer registers were written
system.switch_cpus0.num_load_insts             172904                       # Number of load instructions
system.switch_cpus0.num_mem_refs               206318                       # number of memory refs
system.switch_cpus0.num_store_insts             33414                       # Number of store instructions
system.switch_cpus0.num_vec_alu_accesses            0                       # Number of vector alu accesses
system.switch_cpus0.num_vec_insts                   0                       # number of vector instructions
system.switch_cpus0.num_vec_register_reads            0                       # number of times the vector registers were read
system.switch_cpus0.num_vec_register_writes            0                       # number of times the vector registers were written
system.switch_cpus0.op_class::No_OpClass        10561      0.64%      0.64% # Class of executed instruction
system.switch_cpus0.op_class::IntAlu          1422080     86.26%     86.90% # Class of executed instruction
system.switch_cpus0.op_class::IntMult            8863      0.54%     87.44% # Class of executed instruction
system.switch_cpus0.op_class::IntDiv              742      0.05%     87.48% # Class of executed instruction
system.switch_cpus0.op_class::FloatAdd              0      0.00%     87.48% # Class of executed instruction
system.switch_cpus0.op_class::FloatCmp              0      0.00%     87.48% # Class of executed instruction
system.switch_cpus0.op_class::FloatCvt              0      0.00%     87.48% # Class of executed instruction
system.switch_cpus0.op_class::FloatMult             0      0.00%     87.48% # Class of executed instruction
system.switch_cpus0.op_class::FloatMultAcc            0      0.00%     87.48% # Class of executed instruction
system.switch_cpus0.op_class::FloatDiv              0      0.00%     87.48% # Class of executed instruction
system.switch_cpus0.op_class::FloatMisc             0      0.00%     87.48% # Class of executed instruction
system.switch_cpus0.op_class::FloatSqrt             0      0.00%     87.48% # Class of executed instruction
system.switch_cpus0.op_class::SimdAdd               0      0.00%     87.48% # Class of executed instruction
system.switch_cpus0.op_class::SimdAddAcc            0      0.00%     87.48% # Class of executed instruction
system.switch_cpus0.op_class::SimdAlu               0      0.00%     87.48% # Class of executed instruction
system.switch_cpus0.op_class::SimdCmp               0      0.00%     87.48% # Class of executed instruction
system.switch_cpus0.op_class::SimdCvt               0      0.00%     87.48% # Class of executed instruction
system.switch_cpus0.op_class::SimdMisc              0      0.00%     87.48% # Class of executed instruction
system.switch_cpus0.op_class::SimdMult              0      0.00%     87.48% # Class of executed instruction
system.switch_cpus0.op_class::SimdMultAcc            0      0.00%     87.48% # Class of executed instruction
system.switch_cpus0.op_class::SimdShift             0      0.00%     87.48% # Class of executed instruction
system.switch_cpus0.op_class::SimdShiftAcc            0      0.00%     87.48% # Class of executed instruction
system.switch_cpus0.op_class::SimdDiv               0      0.00%     87.48% # Class of executed instruction
system.switch_cpus0.op_class::SimdSqrt              0      0.00%     87.48% # Class of executed instruction
system.switch_cpus0.op_class::SimdFloatAdd            0      0.00%     87.48% # Class of executed instruction
system.switch_cpus0.op_class::SimdFloatAlu            0      0.00%     87.48% # Class of executed instruction
system.switch_cpus0.op_class::SimdFloatCmp            0      0.00%     87.48% # Class of executed instruction
system.switch_cpus0.op_class::SimdFloatCvt            0      0.00%     87.48% # Class of executed instruction
system.switch_cpus0.op_class::SimdFloatDiv            0      0.00%     87.48% # Class of executed instruction
system.switch_cpus0.op_class::SimdFloatMisc            0      0.00%     87.48% # Class of executed instruction
system.switch_cpus0.op_class::SimdFloatMult            0      0.00%     87.48% # Class of executed instruction
system.switch_cpus0.op_class::SimdFloatMultAcc            0      0.00%     87.48% # Class of executed instruction
system.switch_cpus0.op_class::SimdFloatSqrt            0      0.00%     87.48% # Class of executed instruction
system.switch_cpus0.op_class::SimdReduceAdd            0      0.00%     87.48% # Class of executed instruction
system.switch_cpus0.op_class::SimdReduceAlu            0      0.00%     87.48% # Class of executed instruction
system.switch_cpus0.op_class::SimdReduceCmp            0      0.00%     87.48% # Class of executed instruction
system.switch_cpus0.op_class::SimdFloatReduceAdd            0      0.00%     87.48% # Class of executed instruction
system.switch_cpus0.op_class::SimdFloatReduceCmp            0      0.00%     87.48% # Class of executed instruction
system.switch_cpus0.op_class::SimdAes               0      0.00%     87.48% # Class of executed instruction
system.switch_cpus0.op_class::SimdAesMix            0      0.00%     87.48% # Class of executed instruction
system.switch_cpus0.op_class::SimdSha1Hash            0      0.00%     87.48% # Class of executed instruction
system.switch_cpus0.op_class::SimdSha1Hash2            0      0.00%     87.48% # Class of executed instruction
system.switch_cpus0.op_class::SimdSha256Hash            0      0.00%     87.48% # Class of executed instruction
system.switch_cpus0.op_class::SimdSha256Hash2            0      0.00%     87.48% # Class of executed instruction
system.switch_cpus0.op_class::SimdShaSigma2            0      0.00%     87.48% # Class of executed instruction
system.switch_cpus0.op_class::SimdShaSigma3            0      0.00%     87.48% # Class of executed instruction
system.switch_cpus0.op_class::SimdPredAlu            0      0.00%     87.48% # Class of executed instruction
system.switch_cpus0.op_class::MemRead          172660     10.47%     97.96% # Class of executed instruction
system.switch_cpus0.op_class::MemWrite          33164      2.01%     99.97% # Class of executed instruction
system.switch_cpus0.op_class::FloatMemRead          244      0.01%     99.98% # Class of executed instruction
system.switch_cpus0.op_class::FloatMemWrite          250      0.02%    100.00% # Class of executed instruction
system.switch_cpus0.op_class::IprAccess             0      0.00%    100.00% # Class of executed instruction
system.switch_cpus0.op_class::InstPrefetch            0      0.00%    100.00% # Class of executed instruction
system.switch_cpus0.op_class::total           1648564                       # Class of executed instruction
system.switch_cpus1.Branches                   179755                       # Number of branches fetched
system.switch_cpus1.committedInsts             799901                       # Number of instructions committed
system.switch_cpus1.committedOps              1618580                       # Number of ops (including micro ops) committed
system.switch_cpus1.dtb.rdAccesses             233645                       # TLB accesses on read requests
system.switch_cpus1.dtb.rdMisses                   40                       # TLB misses on read requests
system.switch_cpus1.dtb.wrAccesses             170703                       # TLB accesses on write requests
system.switch_cpus1.dtb.wrMisses                    3                       # TLB misses on write requests
system.switch_cpus1.idle_fraction            0.000000                       # Percentage of idle cycles
system.switch_cpus1.itb.rdAccesses                  0                       # TLB accesses on read requests
system.switch_cpus1.itb.rdMisses                    0                       # TLB misses on read requests
system.switch_cpus1.itb.wrAccesses            1014207                       # TLB accesses on write requests
system.switch_cpus1.itb.wrMisses                   27                       # TLB misses on write requests
system.switch_cpus1.not_idle_fraction        1.000000                       # Percentage of non-idle cycles
system.switch_cpus1.numCycles                 4465210                       # number of cpu cycles simulated
system.switch_cpus1.numWorkItemsCompleted            0                       # number of work items this cpu completed
system.switch_cpus1.numWorkItemsStarted             0                       # number of work items this cpu started
system.switch_cpus1.num_busy_cycles      4465209.494081                       # Number of busy cycles
system.switch_cpus1.num_cc_register_reads       669733                       # number of times the CC registers were read
system.switch_cpus1.num_cc_register_writes       359077                       # number of times the CC registers were written
system.switch_cpus1.num_conditional_control_insts        81876                       # number of instructions that are conditional controls
system.switch_cpus1.num_fp_alu_accesses         13229                       # Number of float alu accesses
system.switch_cpus1.num_fp_insts                13229                       # number of float instructions
system.switch_cpus1.num_fp_register_reads        22205                       # number of times the floating registers were read
system.switch_cpus1.num_fp_register_writes        11635                       # number of times the floating registers were written
system.switch_cpus1.num_func_calls              84788                       # number of times a function call or return occured
system.switch_cpus1.num_idle_cycles          0.505919                       # Number of idle cycles
system.switch_cpus1.num_int_alu_accesses      1601902                       # Number of integer alu accesses
system.switch_cpus1.num_int_insts             1601902                       # number of integer instructions
system.switch_cpus1.num_int_register_reads      3396547                       # number of times the integer registers were read
system.switch_cpus1.num_int_register_writes      1256440                       # number of times the integer registers were written
system.switch_cpus1.num_load_insts             233643                       # Number of load instructions
system.switch_cpus1.num_mem_refs               404344                       # number of memory refs
system.switch_cpus1.num_store_insts            170701                       # Number of store instructions
system.switch_cpus1.num_vec_alu_accesses            0                       # Number of vector alu accesses
system.switch_cpus1.num_vec_insts                   0                       # number of vector instructions
system.switch_cpus1.num_vec_register_reads            0                       # number of times the vector registers were read
system.switch_cpus1.num_vec_register_writes            0                       # number of times the vector registers were written
system.switch_cpus1.op_class::No_OpClass         5384      0.33%      0.33% # Class of executed instruction
system.switch_cpus1.op_class::IntAlu          1196749     73.94%     74.27% # Class of executed instruction
system.switch_cpus1.op_class::IntMult             733      0.05%     74.32% # Class of executed instruction
system.switch_cpus1.op_class::IntDiv             1848      0.11%     74.43% # Class of executed instruction
system.switch_cpus1.op_class::FloatAdd            527      0.03%     74.46% # Class of executed instruction
system.switch_cpus1.op_class::FloatCmp              0      0.00%     74.46% # Class of executed instruction
system.switch_cpus1.op_class::FloatCvt              0      0.00%     74.46% # Class of executed instruction
system.switch_cpus1.op_class::FloatMult             0      0.00%     74.46% # Class of executed instruction
system.switch_cpus1.op_class::FloatMultAcc            0      0.00%     74.46% # Class of executed instruction
system.switch_cpus1.op_class::FloatDiv              0      0.00%     74.46% # Class of executed instruction
system.switch_cpus1.op_class::FloatMisc             0      0.00%     74.46% # Class of executed instruction
system.switch_cpus1.op_class::FloatSqrt             0      0.00%     74.46% # Class of executed instruction
system.switch_cpus1.op_class::SimdAdd               0      0.00%     74.46% # Class of executed instruction
system.switch_cpus1.op_class::SimdAddAcc            0      0.00%     74.46% # Class of executed instruction
system.switch_cpus1.op_class::SimdAlu            2116      0.13%     74.59% # Class of executed instruction
system.switch_cpus1.op_class::SimdCmp               0      0.00%     74.59% # Class of executed instruction
system.switch_cpus1.op_class::SimdCvt            2122      0.13%     74.72% # Class of executed instruction
system.switch_cpus1.op_class::SimdMisc           4757      0.29%     75.02% # Class of executed instruction
system.switch_cpus1.op_class::SimdMult              0      0.00%     75.02% # Class of executed instruction
system.switch_cpus1.op_class::SimdMultAcc            0      0.00%     75.02% # Class of executed instruction
system.switch_cpus1.op_class::SimdShift             0      0.00%     75.02% # Class of executed instruction
system.switch_cpus1.op_class::SimdShiftAcc            0      0.00%     75.02% # Class of executed instruction
system.switch_cpus1.op_class::SimdDiv               0      0.00%     75.02% # Class of executed instruction
system.switch_cpus1.op_class::SimdSqrt              0      0.00%     75.02% # Class of executed instruction
system.switch_cpus1.op_class::SimdFloatAdd            0      0.00%     75.02% # Class of executed instruction
system.switch_cpus1.op_class::SimdFloatAlu            0      0.00%     75.02% # Class of executed instruction
system.switch_cpus1.op_class::SimdFloatCmp            0      0.00%     75.02% # Class of executed instruction
system.switch_cpus1.op_class::SimdFloatCvt            0      0.00%     75.02% # Class of executed instruction
system.switch_cpus1.op_class::SimdFloatDiv            0      0.00%     75.02% # Class of executed instruction
system.switch_cpus1.op_class::SimdFloatMisc            0      0.00%     75.02% # Class of executed instruction
system.switch_cpus1.op_class::SimdFloatMult            0      0.00%     75.02% # Class of executed instruction
system.switch_cpus1.op_class::SimdFloatMultAcc            0      0.00%     75.02% # Class of executed instruction
system.switch_cpus1.op_class::SimdFloatSqrt            0      0.00%     75.02% # Class of executed instruction
system.switch_cpus1.op_class::SimdReduceAdd            0      0.00%     75.02% # Class of executed instruction
system.switch_cpus1.op_class::SimdReduceAlu            0      0.00%     75.02% # Class of executed instruction
system.switch_cpus1.op_class::SimdReduceCmp            0      0.00%     75.02% # Class of executed instruction
system.switch_cpus1.op_class::SimdFloatReduceAdd            0      0.00%     75.02% # Class of executed instruction
system.switch_cpus1.op_class::SimdFloatReduceCmp            0      0.00%     75.02% # Class of executed instruction
system.switch_cpus1.op_class::SimdAes               0      0.00%     75.02% # Class of executed instruction
system.switch_cpus1.op_class::SimdAesMix            0      0.00%     75.02% # Class of executed instruction
system.switch_cpus1.op_class::SimdSha1Hash            0      0.00%     75.02% # Class of executed instruction
system.switch_cpus1.op_class::SimdSha1Hash2            0      0.00%     75.02% # Class of executed instruction
system.switch_cpus1.op_class::SimdSha256Hash            0      0.00%     75.02% # Class of executed instruction
system.switch_cpus1.op_class::SimdSha256Hash2            0      0.00%     75.02% # Class of executed instruction
system.switch_cpus1.op_class::SimdShaSigma2            0      0.00%     75.02% # Class of executed instruction
system.switch_cpus1.op_class::SimdShaSigma3            0      0.00%     75.02% # Class of executed instruction
system.switch_cpus1.op_class::SimdPredAlu            0      0.00%     75.02% # Class of executed instruction
system.switch_cpus1.op_class::MemRead          232043     14.34%     89.35% # Class of executed instruction
system.switch_cpus1.op_class::MemWrite         170175     10.51%     99.87% # Class of executed instruction
system.switch_cpus1.op_class::FloatMemRead         1600      0.10%     99.97% # Class of executed instruction
system.switch_cpus1.op_class::FloatMemWrite          526      0.03%    100.00% # Class of executed instruction
system.switch_cpus1.op_class::IprAccess             0      0.00%    100.00% # Class of executed instruction
system.switch_cpus1.op_class::InstPrefetch            0      0.00%    100.00% # Class of executed instruction
system.switch_cpus1.op_class::total           1618580                       # Class of executed instruction
system.switch_cpus_10.branchPred.BTBCorrect            0                       # Number of correct BTB predictions (this stat may not work properly.
system.switch_cpus_10.branchPred.BTBHitPct     0.000000                       # BTB Hit Percentage
system.switch_cpus_10.branchPred.BTBHits            0                       # Number of BTB hits
system.switch_cpus_10.branchPred.BTBLookups     14993095                       # Number of BTB lookups
system.switch_cpus_10.branchPred.RASInCorrect            3                       # Number of incorrect RAS predictions.
system.switch_cpus_10.branchPred.condIncorrect      1651536                       # Number of conditional branches incorrect
system.switch_cpus_10.branchPred.condPredicted     16675186                       # Number of conditional branches predicted
system.switch_cpus_10.branchPred.indirectHits      7612746                       # Number of indirect target hits.
system.switch_cpus_10.branchPred.indirectLookups     14993095                       # Number of indirect predictor lookups.
system.switch_cpus_10.branchPred.indirectMisses      7380349                       # Number of indirect misses.
system.switch_cpus_10.branchPred.lookups     17083563                       # Number of BP lookups
system.switch_cpus_10.branchPred.usedRAS        94649                       # Number of times the RAS was used to get a target.
system.switch_cpus_10.branchPredindirectMispredicted      1219186                       # Number of mispredicted indirect branches.
system.switch_cpus_10.cc_regfile_reads       67283916                       # number of cc regfile reads
system.switch_cpus_10.cc_regfile_writes      57263310                       # number of cc regfile writes
system.switch_cpus_10.commit.amos                   0                       # Number of atomic instructions committed
system.switch_cpus_10.commit.branchMispredicts      1651536                       # The number of times a branch was mispredicted
system.switch_cpus_10.commit.branches        10054587                       # Number of branches committed
system.switch_cpus_10.commit.bw_lim_events      4525186                       # number cycles where commit BW limit reached
system.switch_cpus_10.commit.commitSquashedInsts     43639715                       # The number of squashed insts skipped by commit
system.switch_cpus_10.commit.committedInsts     50000001                       # Number of instructions committed
system.switch_cpus_10.commit.committedOps     89102423                       # Number of ops (including micro ops) committed
system.switch_cpus_10.commit.committed_per_cycle::samples     41808236                       # Number of insts commited each cycle
system.switch_cpus_10.commit.committed_per_cycle::mean     2.131217                       # Number of insts commited each cycle
system.switch_cpus_10.commit.committed_per_cycle::stdev     2.716304                       # Number of insts commited each cycle
system.switch_cpus_10.commit.committed_per_cycle::underflows            0      0.00%      0.00% # Number of insts commited each cycle
system.switch_cpus_10.commit.committed_per_cycle::0     17743012     42.44%     42.44% # Number of insts commited each cycle
system.switch_cpus_10.commit.committed_per_cycle::1      7806380     18.67%     61.11% # Number of insts commited each cycle
system.switch_cpus_10.commit.committed_per_cycle::2      2081102      4.98%     66.09% # Number of insts commited each cycle
system.switch_cpus_10.commit.committed_per_cycle::3      4197651     10.04%     76.13% # Number of insts commited each cycle
system.switch_cpus_10.commit.committed_per_cycle::4      2250099      5.38%     81.51% # Number of insts commited each cycle
system.switch_cpus_10.commit.committed_per_cycle::5      1021118      2.44%     83.95% # Number of insts commited each cycle
system.switch_cpus_10.commit.committed_per_cycle::6      1052404      2.52%     86.47% # Number of insts commited each cycle
system.switch_cpus_10.commit.committed_per_cycle::7      1131284      2.71%     89.18% # Number of insts commited each cycle
system.switch_cpus_10.commit.committed_per_cycle::8      4525186     10.82%    100.00% # Number of insts commited each cycle
system.switch_cpus_10.commit.committed_per_cycle::overflows            0      0.00%    100.00% # Number of insts commited each cycle
system.switch_cpus_10.commit.committed_per_cycle::min_value            0                       # Number of insts commited each cycle
system.switch_cpus_10.commit.committed_per_cycle::max_value            8                       # Number of insts commited each cycle
system.switch_cpus_10.commit.committed_per_cycle::total     41808236                       # Number of insts commited each cycle
system.switch_cpus_10.commit.fp_insts           64194                       # Number of committed floating point instructions.
system.switch_cpus_10.commit.function_calls        60952                       # Number of function calls committed.
system.switch_cpus_10.commit.int_insts       88866131                       # Number of committed integer instructions.
system.switch_cpus_10.commit.loads           11350718                       # Number of loads committed
system.switch_cpus_10.commit.membars                0                       # Number of memory barriers committed
system.switch_cpus_10.commit.op_class_0::No_OpClass       180541      0.20%      0.20% # Class of committed instruction
system.switch_cpus_10.commit.op_class_0::IntAlu     71845628     80.63%     80.84% # Class of committed instruction
system.switch_cpus_10.commit.op_class_0::IntMult       908720      1.02%     81.86% # Class of committed instruction
system.switch_cpus_10.commit.op_class_0::IntDiv       188923      0.21%     82.07% # Class of committed instruction
system.switch_cpus_10.commit.op_class_0::FloatAdd            0      0.00%     82.07% # Class of committed instruction
system.switch_cpus_10.commit.op_class_0::FloatCmp            0      0.00%     82.07% # Class of committed instruction
system.switch_cpus_10.commit.op_class_0::FloatCvt            0      0.00%     82.07% # Class of committed instruction
system.switch_cpus_10.commit.op_class_0::FloatMult            0      0.00%     82.07% # Class of committed instruction
system.switch_cpus_10.commit.op_class_0::FloatMultAcc            0      0.00%     82.07% # Class of committed instruction
system.switch_cpus_10.commit.op_class_0::FloatDiv            0      0.00%     82.07% # Class of committed instruction
system.switch_cpus_10.commit.op_class_0::FloatMisc            0      0.00%     82.07% # Class of committed instruction
system.switch_cpus_10.commit.op_class_0::FloatSqrt            0      0.00%     82.07% # Class of committed instruction
system.switch_cpus_10.commit.op_class_0::SimdAdd            0      0.00%     82.07% # Class of committed instruction
system.switch_cpus_10.commit.op_class_0::SimdAddAcc            0      0.00%     82.07% # Class of committed instruction
system.switch_cpus_10.commit.op_class_0::SimdAlu            0      0.00%     82.07% # Class of committed instruction
system.switch_cpus_10.commit.op_class_0::SimdCmp            0      0.00%     82.07% # Class of committed instruction
system.switch_cpus_10.commit.op_class_0::SimdCvt            0      0.00%     82.07% # Class of committed instruction
system.switch_cpus_10.commit.op_class_0::SimdMisc            0      0.00%     82.07% # Class of committed instruction
system.switch_cpus_10.commit.op_class_0::SimdMult            0      0.00%     82.07% # Class of committed instruction
system.switch_cpus_10.commit.op_class_0::SimdMultAcc            0      0.00%     82.07% # Class of committed instruction
system.switch_cpus_10.commit.op_class_0::SimdShift            0      0.00%     82.07% # Class of committed instruction
system.switch_cpus_10.commit.op_class_0::SimdShiftAcc            0      0.00%     82.07% # Class of committed instruction
system.switch_cpus_10.commit.op_class_0::SimdDiv            0      0.00%     82.07% # Class of committed instruction
system.switch_cpus_10.commit.op_class_0::SimdSqrt            0      0.00%     82.07% # Class of committed instruction
system.switch_cpus_10.commit.op_class_0::SimdFloatAdd            0      0.00%     82.07% # Class of committed instruction
system.switch_cpus_10.commit.op_class_0::SimdFloatAlu            0      0.00%     82.07% # Class of committed instruction
system.switch_cpus_10.commit.op_class_0::SimdFloatCmp            0      0.00%     82.07% # Class of committed instruction
system.switch_cpus_10.commit.op_class_0::SimdFloatCvt            0      0.00%     82.07% # Class of committed instruction
system.switch_cpus_10.commit.op_class_0::SimdFloatDiv            0      0.00%     82.07% # Class of committed instruction
system.switch_cpus_10.commit.op_class_0::SimdFloatMisc            0      0.00%     82.07% # Class of committed instruction
system.switch_cpus_10.commit.op_class_0::SimdFloatMult            0      0.00%     82.07% # Class of committed instruction
system.switch_cpus_10.commit.op_class_0::SimdFloatMultAcc            0      0.00%     82.07% # Class of committed instruction
system.switch_cpus_10.commit.op_class_0::SimdFloatSqrt            0      0.00%     82.07% # Class of committed instruction
system.switch_cpus_10.commit.op_class_0::SimdReduceAdd            0      0.00%     82.07% # Class of committed instruction
system.switch_cpus_10.commit.op_class_0::SimdReduceAlu            0      0.00%     82.07% # Class of committed instruction
system.switch_cpus_10.commit.op_class_0::SimdReduceCmp            0      0.00%     82.07% # Class of committed instruction
system.switch_cpus_10.commit.op_class_0::SimdFloatReduceAdd            0      0.00%     82.07% # Class of committed instruction
system.switch_cpus_10.commit.op_class_0::SimdFloatReduceCmp            0      0.00%     82.07% # Class of committed instruction
system.switch_cpus_10.commit.op_class_0::SimdAes            0      0.00%     82.07% # Class of committed instruction
system.switch_cpus_10.commit.op_class_0::SimdAesMix            0      0.00%     82.07% # Class of committed instruction
system.switch_cpus_10.commit.op_class_0::SimdSha1Hash            0      0.00%     82.07% # Class of committed instruction
system.switch_cpus_10.commit.op_class_0::SimdSha1Hash2            0      0.00%     82.07% # Class of committed instruction
system.switch_cpus_10.commit.op_class_0::SimdSha256Hash            0      0.00%     82.07% # Class of committed instruction
system.switch_cpus_10.commit.op_class_0::SimdSha256Hash2            0      0.00%     82.07% # Class of committed instruction
system.switch_cpus_10.commit.op_class_0::SimdShaSigma2            0      0.00%     82.07% # Class of committed instruction
system.switch_cpus_10.commit.op_class_0::SimdShaSigma3            0      0.00%     82.07% # Class of committed instruction
system.switch_cpus_10.commit.op_class_0::SimdPredAlu            0      0.00%     82.07% # Class of committed instruction
system.switch_cpus_10.commit.op_class_0::MemRead     11318678     12.70%     94.77% # Class of committed instruction
system.switch_cpus_10.commit.op_class_0::MemWrite      4595739      5.16%     99.93% # Class of committed instruction
system.switch_cpus_10.commit.op_class_0::FloatMemRead        32040      0.04%     99.96% # Class of committed instruction
system.switch_cpus_10.commit.op_class_0::FloatMemWrite        32154      0.04%    100.00% # Class of committed instruction
system.switch_cpus_10.commit.op_class_0::IprAccess            0      0.00%    100.00% # Class of committed instruction
system.switch_cpus_10.commit.op_class_0::InstPrefetch            0      0.00%    100.00% # Class of committed instruction
system.switch_cpus_10.commit.op_class_0::total     89102423                       # Class of committed instruction
system.switch_cpus_10.commit.refs            15978611                       # Number of memory references committed
system.switch_cpus_10.commit.swp_count              0                       # Number of s/w prefetches committed
system.switch_cpus_10.commit.vec_insts              0                       # Number of committed Vector instructions.
system.switch_cpus_10.committedInsts         50000001                       # Number of Instructions Simulated
system.switch_cpus_10.committedOps           89102423                       # Number of Ops (including micro ops) Simulated
system.switch_cpus_10.cpi                    0.969808                       # CPI: Cycles Per Instruction
system.switch_cpus_10.cpi_total              0.969808                       # CPI: Total CPI of All Threads
system.switch_cpus_10.decode.BlockedCycles      5492492                       # Number of cycles decode is blocked
system.switch_cpus_10.decode.DecodedInsts    151614418                       # Number of instructions handled by decode
system.switch_cpus_10.decode.IdleCycles      18056172                       # Number of cycles decode is idle
system.switch_cpus_10.decode.RunCycles       22788122                       # Number of cycles decode is running
system.switch_cpus_10.decode.SquashCycles      1661710                       # Number of cycles decode is squashing
system.switch_cpus_10.decode.UnblockCycles       446625                       # Number of cycles decode is unblocking
system.switch_cpus_10.dtb.rdAccesses         16496949                       # TLB accesses on read requests
system.switch_cpus_10.dtb.rdMisses                555                       # TLB misses on read requests
system.switch_cpus_10.dtb.wrAccesses          5563336                       # TLB accesses on write requests
system.switch_cpus_10.dtb.wrMisses                  3                       # TLB misses on write requests
system.switch_cpus_10.fetch.Branches         17083563                       # Number of branches that fetch encountered
system.switch_cpus_10.fetch.CacheLines        9490545                       # Number of cache lines fetched
system.switch_cpus_10.fetch.Cycles           27001862                       # Number of cycles fetch has run and was not squashing or blocked
system.switch_cpus_10.fetch.IcacheSquashes       644580                       # Number of outstanding Icache misses that were squashed
system.switch_cpus_10.fetch.Insts            88415713                       # Number of instructions fetch has processed
system.switch_cpus_10.fetch.PendingQuiesceStallCycles         1246                       # Number of stall cycles due to pending quiesce instructions
system.switch_cpus_10.fetch.SquashCycles      3323420                       # Number of cycles fetch has spent squashing
system.switch_cpus_10.fetch.branchRate       0.352308                       # Number of branch fetches per cycle
system.switch_cpus_10.fetch.icacheStallCycles     19780311                       # Number of cycles fetch is stalled on an Icache miss
system.switch_cpus_10.fetch.predictedBranches      7707395                       # Number of branches that fetch has predicted taken
system.switch_cpus_10.fetch.rate             1.823364                       # Number of inst fetches per cycle
system.switch_cpus_10.fetch.rateDist::samples     48445129                       # Number of instructions fetched each cycle (Total)
system.switch_cpus_10.fetch.rateDist::mean     3.279687                       # Number of instructions fetched each cycle (Total)
system.switch_cpus_10.fetch.rateDist::stdev     3.557582                       # Number of instructions fetched each cycle (Total)
system.switch_cpus_10.fetch.rateDist::underflows            0      0.00%      0.00% # Number of instructions fetched each cycle (Total)
system.switch_cpus_10.fetch.rateDist::0      23022800     47.52%     47.52% # Number of instructions fetched each cycle (Total)
system.switch_cpus_10.fetch.rateDist::1       1440305      2.97%     50.50% # Number of instructions fetched each cycle (Total)
system.switch_cpus_10.fetch.rateDist::2       1258926      2.60%     53.10% # Number of instructions fetched each cycle (Total)
system.switch_cpus_10.fetch.rateDist::3       2039056      4.21%     57.30% # Number of instructions fetched each cycle (Total)
system.switch_cpus_10.fetch.rateDist::4       2016034      4.16%     61.47% # Number of instructions fetched each cycle (Total)
system.switch_cpus_10.fetch.rateDist::5       1469096      3.03%     64.50% # Number of instructions fetched each cycle (Total)
system.switch_cpus_10.fetch.rateDist::6       1281010      2.64%     67.14% # Number of instructions fetched each cycle (Total)
system.switch_cpus_10.fetch.rateDist::7       1629378      3.36%     70.51% # Number of instructions fetched each cycle (Total)
system.switch_cpus_10.fetch.rateDist::8      14288524     29.49%    100.00% # Number of instructions fetched each cycle (Total)
system.switch_cpus_10.fetch.rateDist::overflows            0      0.00%    100.00% # Number of instructions fetched each cycle (Total)
system.switch_cpus_10.fetch.rateDist::min_value            0                       # Number of instructions fetched each cycle (Total)
system.switch_cpus_10.fetch.rateDist::max_value            8                       # Number of instructions fetched each cycle (Total)
system.switch_cpus_10.fetch.rateDist::total     48445129                       # Number of instructions fetched each cycle (Total)
system.switch_cpus_10.fp_regfile_reads          32433                       # number of floating regfile reads
system.switch_cpus_10.fp_regfile_writes         32826                       # number of floating regfile writes
system.switch_cpus_10.idleCycles                45293                       # Total number of cycles that the CPU has spent unscheduled due to idling
system.switch_cpus_10.iew.branchMispredicts      2084307                       # Number of branch mispredicts detected at execute
system.switch_cpus_10.iew.exec_branches      11911886                       # Number of branches executed
system.switch_cpus_10.iew.exec_nop                  0                       # number of nop insts executed
system.switch_cpus_10.iew.exec_rate          2.367082                       # Inst execution rate
system.switch_cpus_10.iew.exec_refs          22059734                       # number of memory reference insts executed
system.switch_cpus_10.iew.exec_stores         5563262                       # Number of stores executed
system.switch_cpus_10.iew.exec_swp                  0                       # number of swp insts executed
system.switch_cpus_10.iew.iewBlockCycles      4977615                       # Number of cycles IEW is blocking
system.switch_cpus_10.iew.iewDispLoadInsts     18783111                       # Number of dispatched load instructions
system.switch_cpus_10.iew.iewDispNonSpecInsts            0                       # Number of dispatched non-speculative instructions
system.switch_cpus_10.iew.iewDispSquashedInsts       711788                       # Number of squashed instructions skipped by dispatch
system.switch_cpus_10.iew.iewDispStoreInsts      7542986                       # Number of dispatched store instructions
system.switch_cpus_10.iew.iewDispatchedInsts    132742139                       # Number of instructions dispatched to IQ
system.switch_cpus_10.iew.iewExecLoadInsts     16496472                       # Number of load instructions executed
system.switch_cpus_10.iew.iewExecSquashedInsts      3447292                       # Number of squashed instructions skipped in execute
system.switch_cpus_10.iew.iewExecutedInsts    114780793                       # Number of executed instructions
system.switch_cpus_10.iew.iewIQFullEvents           19                       # Number of times the IQ has become full, causing a stall
system.switch_cpus_10.iew.iewIdleCycles             0                       # Number of cycles IEW is idle
system.switch_cpus_10.iew.iewLSQFullEvents         3146                       # Number of times the LSQ has become full, causing a stall
system.switch_cpus_10.iew.iewSquashCycles      1661710                       # Number of cycles IEW is squashing
system.switch_cpus_10.iew.iewUnblockCycles         3172                       # Number of cycles IEW is unblocking
system.switch_cpus_10.iew.lsq.thread0.blockedLoads            0                       # Number of blocked loads due to partial load-store forwarding
system.switch_cpus_10.iew.lsq.thread0.cacheBlocked            0                       # Number of times an access to memory failed due to the cache being blocked
system.switch_cpus_10.iew.lsq.thread0.forwLoads       956306                       # Number of loads that had data forwarded from stores
system.switch_cpus_10.iew.lsq.thread0.ignoredResponses        18222                       # Number of memory responses ignored because the instruction is squashed
system.switch_cpus_10.iew.lsq.thread0.invAddrLoads            0                       # Number of loads ignored due to an invalid address
system.switch_cpus_10.iew.lsq.thread0.invAddrSwpfs            0                       # Number of software prefetches ignored due to an invalid address
system.switch_cpus_10.iew.lsq.thread0.memOrderViolation        16031                       # Number of memory ordering violations
system.switch_cpus_10.iew.lsq.thread0.rescheduledLoads           42                       # Number of loads that were rescheduled
system.switch_cpus_10.iew.lsq.thread0.squashedLoads      7432389                       # Number of loads squashed
system.switch_cpus_10.iew.lsq.thread0.squashedStores      2915089                       # Number of stores squashed
system.switch_cpus_10.iew.memOrderViolationEvents        16031                       # Number of memory order violations
system.switch_cpus_10.iew.predictedNotTakenIncorrect      1720976                       # Number of branches that were predicted not taken incorrectly
system.switch_cpus_10.iew.predictedTakenIncorrect       363331                       # Number of branches that were predicted taken incorrectly
system.switch_cpus_10.iew.wb_consumers      126937038                       # num instructions consuming a value
system.switch_cpus_10.iew.wb_count          112187532                       # cumulative count of insts written-back
system.switch_cpus_10.iew.wb_fanout          0.652769                       # average fanout of values written-back
system.switch_cpus_10.iew.wb_producers       82860613                       # num instructions producing a value
system.switch_cpus_10.iew.wb_rate            2.313602                       # insts written-back per cycle
system.switch_cpus_10.iew.wb_sent           112789742                       # cumulative count of insts sent to commit
system.switch_cpus_10.int_regfile_reads     162259376                       # number of integer regfile reads
system.switch_cpus_10.int_regfile_writes     96147130                       # number of integer regfile writes
system.switch_cpus_10.ipc                    1.031131                       # IPC: Instructions Per Cycle
system.switch_cpus_10.ipc_total              1.031131                       # IPC: Total IPC of All Threads
system.switch_cpus_10.iq.FU_type_0::No_OpClass       529133      0.45%      0.45% # Type of FU issued
system.switch_cpus_10.iq.FU_type_0::IntAlu     93161665     78.80%     79.25% # Type of FU issued
system.switch_cpus_10.iq.FU_type_0::IntMult      1016714      0.86%     80.11% # Type of FU issued
system.switch_cpus_10.iq.FU_type_0::IntDiv       196982      0.17%     80.27% # Type of FU issued
system.switch_cpus_10.iq.FU_type_0::FloatAdd            0      0.00%     80.27% # Type of FU issued
system.switch_cpus_10.iq.FU_type_0::FloatCmp            0      0.00%     80.27% # Type of FU issued
system.switch_cpus_10.iq.FU_type_0::FloatCvt            0      0.00%     80.27% # Type of FU issued
system.switch_cpus_10.iq.FU_type_0::FloatMult            0      0.00%     80.27% # Type of FU issued
system.switch_cpus_10.iq.FU_type_0::FloatMultAcc            0      0.00%     80.27% # Type of FU issued
system.switch_cpus_10.iq.FU_type_0::FloatDiv            0      0.00%     80.27% # Type of FU issued
system.switch_cpus_10.iq.FU_type_0::FloatMisc            0      0.00%     80.27% # Type of FU issued
system.switch_cpus_10.iq.FU_type_0::FloatSqrt            0      0.00%     80.27% # Type of FU issued
system.switch_cpus_10.iq.FU_type_0::SimdAdd            0      0.00%     80.27% # Type of FU issued
system.switch_cpus_10.iq.FU_type_0::SimdAddAcc            0      0.00%     80.27% # Type of FU issued
system.switch_cpus_10.iq.FU_type_0::SimdAlu            0      0.00%     80.27% # Type of FU issued
system.switch_cpus_10.iq.FU_type_0::SimdCmp            0      0.00%     80.27% # Type of FU issued
system.switch_cpus_10.iq.FU_type_0::SimdCvt            0      0.00%     80.27% # Type of FU issued
system.switch_cpus_10.iq.FU_type_0::SimdMisc            0      0.00%     80.27% # Type of FU issued
system.switch_cpus_10.iq.FU_type_0::SimdMult            0      0.00%     80.27% # Type of FU issued
system.switch_cpus_10.iq.FU_type_0::SimdMultAcc            0      0.00%     80.27% # Type of FU issued
system.switch_cpus_10.iq.FU_type_0::SimdShift            0      0.00%     80.27% # Type of FU issued
system.switch_cpus_10.iq.FU_type_0::SimdShiftAcc            0      0.00%     80.27% # Type of FU issued
system.switch_cpus_10.iq.FU_type_0::SimdDiv            0      0.00%     80.27% # Type of FU issued
system.switch_cpus_10.iq.FU_type_0::SimdSqrt            0      0.00%     80.27% # Type of FU issued
system.switch_cpus_10.iq.FU_type_0::SimdFloatAdd            0      0.00%     80.27% # Type of FU issued
system.switch_cpus_10.iq.FU_type_0::SimdFloatAlu            0      0.00%     80.27% # Type of FU issued
system.switch_cpus_10.iq.FU_type_0::SimdFloatCmp            0      0.00%     80.27% # Type of FU issued
system.switch_cpus_10.iq.FU_type_0::SimdFloatCvt            0      0.00%     80.27% # Type of FU issued
system.switch_cpus_10.iq.FU_type_0::SimdFloatDiv            0      0.00%     80.27% # Type of FU issued
system.switch_cpus_10.iq.FU_type_0::SimdFloatMisc            0      0.00%     80.27% # Type of FU issued
system.switch_cpus_10.iq.FU_type_0::SimdFloatMult            0      0.00%     80.27% # Type of FU issued
system.switch_cpus_10.iq.FU_type_0::SimdFloatMultAcc            0      0.00%     80.27% # Type of FU issued
system.switch_cpus_10.iq.FU_type_0::SimdFloatSqrt            0      0.00%     80.27% # Type of FU issued
system.switch_cpus_10.iq.FU_type_0::SimdReduceAdd            0      0.00%     80.27% # Type of FU issued
system.switch_cpus_10.iq.FU_type_0::SimdReduceAlu            0      0.00%     80.27% # Type of FU issued
system.switch_cpus_10.iq.FU_type_0::SimdReduceCmp            0      0.00%     80.27% # Type of FU issued
system.switch_cpus_10.iq.FU_type_0::SimdFloatReduceAdd            0      0.00%     80.27% # Type of FU issued
system.switch_cpus_10.iq.FU_type_0::SimdFloatReduceCmp            0      0.00%     80.27% # Type of FU issued
system.switch_cpus_10.iq.FU_type_0::SimdAes            0      0.00%     80.27% # Type of FU issued
system.switch_cpus_10.iq.FU_type_0::SimdAesMix            0      0.00%     80.27% # Type of FU issued
system.switch_cpus_10.iq.FU_type_0::SimdSha1Hash            0      0.00%     80.27% # Type of FU issued
system.switch_cpus_10.iq.FU_type_0::SimdSha1Hash2            0      0.00%     80.27% # Type of FU issued
system.switch_cpus_10.iq.FU_type_0::SimdSha256Hash            0      0.00%     80.27% # Type of FU issued
system.switch_cpus_10.iq.FU_type_0::SimdSha256Hash2            0      0.00%     80.27% # Type of FU issued
system.switch_cpus_10.iq.FU_type_0::SimdShaSigma2            0      0.00%     80.27% # Type of FU issued
system.switch_cpus_10.iq.FU_type_0::SimdShaSigma3            0      0.00%     80.27% # Type of FU issued
system.switch_cpus_10.iq.FU_type_0::SimdPredAlu            0      0.00%     80.27% # Type of FU issued
system.switch_cpus_10.iq.FU_type_0::MemRead     17392023     14.71%     94.98% # Type of FU issued
system.switch_cpus_10.iq.FU_type_0::MemWrite      5863674      4.96%     99.94% # Type of FU issued
system.switch_cpus_10.iq.FU_type_0::FloatMemRead        35406      0.03%     99.97% # Type of FU issued
system.switch_cpus_10.iq.FU_type_0::FloatMemWrite        32493      0.03%    100.00% # Type of FU issued
system.switch_cpus_10.iq.FU_type_0::IprAccess            0      0.00%    100.00% # Type of FU issued
system.switch_cpus_10.iq.FU_type_0::InstPrefetch            0      0.00%    100.00% # Type of FU issued
system.switch_cpus_10.iq.FU_type_0::total    118228090                       # Type of FU issued
system.switch_cpus_10.iq.fp_alu_accesses        78716                       # Number of floating point alu accesses
system.switch_cpus_10.iq.fp_inst_queue_reads       146901                       # Number of floating instruction queue reads
system.switch_cpus_10.iq.fp_inst_queue_wakeup_accesses        64855                       # Number of floating instruction queue wakeup accesses
system.switch_cpus_10.iq.fp_inst_queue_writes        77130                       # Number of floating instruction queue writes
system.switch_cpus_10.iq.fu_busy_cnt          2331370                       # FU busy when requested
system.switch_cpus_10.iq.fu_busy_rate        0.019719                       # FU busy rate (busy events/executed inst)
system.switch_cpus_10.iq.fu_full::No_OpClass            0      0.00%      0.00% # attempts to use FU when none available
system.switch_cpus_10.iq.fu_full::IntAlu      2058322     88.29%     88.29% # attempts to use FU when none available
system.switch_cpus_10.iq.fu_full::IntMult            0      0.00%     88.29% # attempts to use FU when none available
system.switch_cpus_10.iq.fu_full::IntDiv            0      0.00%     88.29% # attempts to use FU when none available
system.switch_cpus_10.iq.fu_full::FloatAdd            0      0.00%     88.29% # attempts to use FU when none available
system.switch_cpus_10.iq.fu_full::FloatCmp            0      0.00%     88.29% # attempts to use FU when none available
system.switch_cpus_10.iq.fu_full::FloatCvt            0      0.00%     88.29% # attempts to use FU when none available
system.switch_cpus_10.iq.fu_full::FloatMult            0      0.00%     88.29% # attempts to use FU when none available
system.switch_cpus_10.iq.fu_full::FloatMultAcc            0      0.00%     88.29% # attempts to use FU when none available
system.switch_cpus_10.iq.fu_full::FloatDiv            0      0.00%     88.29% # attempts to use FU when none available
system.switch_cpus_10.iq.fu_full::FloatMisc            0      0.00%     88.29% # attempts to use FU when none available
system.switch_cpus_10.iq.fu_full::FloatSqrt            0      0.00%     88.29% # attempts to use FU when none available
system.switch_cpus_10.iq.fu_full::SimdAdd            0      0.00%     88.29% # attempts to use FU when none available
system.switch_cpus_10.iq.fu_full::SimdAddAcc            0      0.00%     88.29% # attempts to use FU when none available
system.switch_cpus_10.iq.fu_full::SimdAlu            0      0.00%     88.29% # attempts to use FU when none available
system.switch_cpus_10.iq.fu_full::SimdCmp            0      0.00%     88.29% # attempts to use FU when none available
system.switch_cpus_10.iq.fu_full::SimdCvt            0      0.00%     88.29% # attempts to use FU when none available
system.switch_cpus_10.iq.fu_full::SimdMisc            0      0.00%     88.29% # attempts to use FU when none available
system.switch_cpus_10.iq.fu_full::SimdMult            0      0.00%     88.29% # attempts to use FU when none available
system.switch_cpus_10.iq.fu_full::SimdMultAcc            0      0.00%     88.29% # attempts to use FU when none available
system.switch_cpus_10.iq.fu_full::SimdShift            0      0.00%     88.29% # attempts to use FU when none available
system.switch_cpus_10.iq.fu_full::SimdShiftAcc            0      0.00%     88.29% # attempts to use FU when none available
system.switch_cpus_10.iq.fu_full::SimdDiv            0      0.00%     88.29% # attempts to use FU when none available
system.switch_cpus_10.iq.fu_full::SimdSqrt            0      0.00%     88.29% # attempts to use FU when none available
system.switch_cpus_10.iq.fu_full::SimdFloatAdd            0      0.00%     88.29% # attempts to use FU when none available
system.switch_cpus_10.iq.fu_full::SimdFloatAlu            0      0.00%     88.29% # attempts to use FU when none available
system.switch_cpus_10.iq.fu_full::SimdFloatCmp            0      0.00%     88.29% # attempts to use FU when none available
system.switch_cpus_10.iq.fu_full::SimdFloatCvt            0      0.00%     88.29% # attempts to use FU when none available
system.switch_cpus_10.iq.fu_full::SimdFloatDiv            0      0.00%     88.29% # attempts to use FU when none available
system.switch_cpus_10.iq.fu_full::SimdFloatMisc            0      0.00%     88.29% # attempts to use FU when none available
system.switch_cpus_10.iq.fu_full::SimdFloatMult            0      0.00%     88.29% # attempts to use FU when none available
system.switch_cpus_10.iq.fu_full::SimdFloatMultAcc            0      0.00%     88.29% # attempts to use FU when none available
system.switch_cpus_10.iq.fu_full::SimdFloatSqrt            0      0.00%     88.29% # attempts to use FU when none available
system.switch_cpus_10.iq.fu_full::SimdReduceAdd            0      0.00%     88.29% # attempts to use FU when none available
system.switch_cpus_10.iq.fu_full::SimdReduceAlu            0      0.00%     88.29% # attempts to use FU when none available
[...]
system.cpu1.l2cache.ReadSharedReq_mshr_miss_latency::total   1822362558                       # number of ReadSharedReq MSHR miss cycles
system.cpu1.l2cache.ReadSharedReq_mshr_miss_rate::.switch_cpus1.data     0.957306                       # mshr miss rate for ReadSharedReq accesses
system.cpu1.l2cache.ReadSharedReq_mshr_miss_rate::.switch_cpus_11.data     0.525221                       # mshr miss rate for ReadSharedReq accesses
system.cpu1.l2cache.ReadSharedReq_mshr_miss_rate::total     0.534528                       # mshr miss rate for ReadSharedReq accesses
system.cpu1.l2cache.ReadSharedReq_avg_mshr_miss_latency::.switch_cpus1.data 69481.126858                       # average ReadSharedReq mshr miss latency
system.cpu1.l2cache.ReadSharedReq_avg_mshr_miss_latency::.switch_cpus_11.data 69683.293605                       # average ReadSharedReq mshr miss latency
system.cpu1.l2cache.ReadSharedReq_avg_mshr_miss_latency::total 69675.494475                       # average ReadSharedReq mshr miss latency
system.cpu1.l2cache.tags.pwrStateResidencyTicks::UNDEFINED 1315434208662                       # Cumulative time (in ticks) in various power states
system.cpu1.l2cache.tags.tagsinuse          61.865806                       # Cycle average of tags in use
system.cpu1.l2cache.tags.total_refs             97845                       # Total number of references to valid blocks.
system.cpu1.l2cache.tags.sampled_refs           26465                       # Sample count of references to valid blocks.
system.cpu1.l2cache.tags.avg_refs            3.697147                       # Average number of references to valid blocks.
system.cpu1.l2cache.tags.warmup_cycle    1293351708033                       # Cycle when the warmup percentage was hit.
system.cpu1.l2cache.tags.occ_blocks::.cpu1.inst     0.003290                       # Average occupied blocks per requestor
system.cpu1.l2cache.tags.occ_blocks::.cpu1.data     0.016787                       # Average occupied blocks per requestor
system.cpu1.l2cache.tags.occ_blocks::.switch_cpus1.inst     0.623576                       # Average occupied blocks per requestor
system.cpu1.l2cache.tags.occ_blocks::.switch_cpus1.data     8.005197                       # Average occupied blocks per requestor
system.cpu1.l2cache.tags.occ_blocks::.switch_cpus_11.inst     0.173280                       # Average occupied blocks per requestor
system.cpu1.l2cache.tags.occ_blocks::.switch_cpus_11.data    53.043675                       # Average occupied blocks per requestor
system.cpu1.l2cache.tags.occ_percent::.cpu1.inst     0.000001                       # Average percentage of cache occupancy
system.cpu1.l2cache.tags.occ_percent::.cpu1.data     0.000004                       # Average percentage of cache occupancy
system.cpu1.l2cache.tags.occ_percent::.switch_cpus1.inst     0.000152                       # Average percentage of cache occupancy
system.cpu1.l2cache.tags.occ_percent::.switch_cpus1.data     0.001954                       # Average percentage of cache occupancy
system.cpu1.l2cache.tags.occ_percent::.switch_cpus_11.inst     0.000042                       # Average percentage of cache occupancy
system.cpu1.l2cache.tags.occ_percent::.switch_cpus_11.data     0.012950                       # Average percentage of cache occupancy
system.cpu1.l2cache.tags.occ_percent::total     0.015104                       # Average percentage of cache occupancy
system.cpu1.l2cache.tags.occ_task_id_blocks::1024         4096                       # Occupied blocks per task id
system.cpu1.l2cache.tags.age_task_id_blocks_1024::0           10                       # Occupied blocks per task id
system.cpu1.l2cache.tags.age_task_id_blocks_1024::1          104                       # Occupied blocks per task id
system.cpu1.l2cache.tags.age_task_id_blocks_1024::2         1442                       # Occupied blocks per task id
system.cpu1.l2cache.tags.age_task_id_blocks_1024::3         2031                       # Occupied blocks per task id
system.cpu1.l2cache.tags.age_task_id_blocks_1024::4          509                       # Occupied blocks per task id
system.cpu1.l2cache.tags.occ_task_id_percent::1024            1                       # Percentage of cache occupancy per task id
system.cpu1.l2cache.tags.tag_accesses         1592033                       # Number of tag accesses
system.cpu1.l2cache.tags.data_accesses        1592033                       # Number of data accesses
system.cpu1.toL2Bus.pwrStateResidencyTicks::UNDEFINED 1315434208662                       # Cumulative time (in ticks) in various power states
system.cpu1.toL2Bus.trans_dist::ReadResp        49216                       # Transaction distribution
system.cpu1.toL2Bus.trans_dist::WritebackDirty          160                       # Transaction distribution
system.cpu1.toL2Bus.trans_dist::CleanEvict        70809                       # Transaction distribution
system.cpu1.toL2Bus.trans_dist::ReadExReq          130                       # Transaction distribution
system.cpu1.toL2Bus.trans_dist::ReadExResp          130                       # Transaction distribution
system.cpu1.toL2Bus.trans_dist::ReadCleanReq          285                       # Transaction distribution
system.cpu1.toL2Bus.trans_dist::ReadSharedReq        48931                       # Transaction distribution
system.cpu1.toL2Bus.pkt_count_system.cpu1.icache.mem_side::system.cpu1.l2cache.cpu_side          570                       # Packet count per connected master and slave (bytes)
system.cpu1.toL2Bus.pkt_count_system.cpu1.dcache.mem_side::system.cpu1.l2cache.cpu_side       146671                       # Packet count per connected master and slave (bytes)
system.cpu1.toL2Bus.pkt_count::total           147241                       # Packet count per connected master and slave (bytes)
system.cpu1.toL2Bus.pkt_size_system.cpu1.icache.mem_side::system.cpu1.l2cache.cpu_side        18240                       # Cumulative packet size per connected master and slave (bytes)
system.cpu1.toL2Bus.pkt_size_system.cpu1.dcache.mem_side::system.cpu1.l2cache.cpu_side      3149696                       # Cumulative packet size per connected master and slave (bytes)
system.cpu1.toL2Bus.pkt_size::total           3167936                       # Cumulative packet size per connected master and slave (bytes)
system.cpu1.toL2Bus.snoops                      22420                       # Total snoops (count)
system.cpu1.toL2Bus.snoopTraffic                  448                       # Total snoop traffic (bytes)
system.cpu1.toL2Bus.snoop_fanout::samples        71766                       # Request fanout histogram
system.cpu1.toL2Bus.snoop_fanout::mean       0.005811                       # Request fanout histogram
system.cpu1.toL2Bus.snoop_fanout::stdev      0.076006                       # Request fanout histogram
system.cpu1.toL2Bus.snoop_fanout::underflows            0      0.00%      0.00% # Request fanout histogram
system.cpu1.toL2Bus.snoop_fanout::0             71349     99.42%     99.42% # Request fanout histogram
system.cpu1.toL2Bus.snoop_fanout::1               417      0.58%    100.00% # Request fanout histogram
system.cpu1.toL2Bus.snoop_fanout::2                 0      0.00%    100.00% # Request fanout histogram
system.cpu1.toL2Bus.snoop_fanout::3                 0      0.00%    100.00% # Request fanout histogram
system.cpu1.toL2Bus.snoop_fanout::4                 0      0.00%    100.00% # Request fanout histogram
system.cpu1.toL2Bus.snoop_fanout::overflows            0      0.00%    100.00% # Request fanout histogram
system.cpu1.toL2Bus.snoop_fanout::min_value            0                       # Request fanout histogram
system.cpu1.toL2Bus.snoop_fanout::max_value            1                       # Request fanout histogram
system.cpu1.toL2Bus.snoop_fanout::total         71766                       # Request fanout histogram
system.cpu1.toL2Bus.reqLayer0.occupancy      40948983                       # Layer occupancy (ticks)
system.cpu1.toL2Bus.reqLayer0.utilization          0.2                       # Layer utilization (%)
system.cpu1.toL2Bus.respLayer1.occupancy     61374060                       # Layer occupancy (ticks)
system.cpu1.toL2Bus.respLayer1.utilization          0.3                       # Layer utilization (%)
system.cpu1.toL2Bus.respLayer0.occupancy       355284                       # Layer occupancy (ticks)
system.cpu1.toL2Bus.respLayer0.utilization          0.0                       # Layer utilization (%)
system.switch_cpus_10.pwrStateResidencyTicks::OFF  22082501046                       # Cumulative time (in ticks) in various power states
system.switch_cpus_10.dtb.walker.pwrStateResidencyTicks::UNDEFINED 1315434208662                       # Cumulative time (in ticks) in various power states
system.switch_cpus_10.itb.walker.pwrStateResidencyTicks::UNDEFINED 1315434208662                       # Cumulative time (in ticks) in various power states
system.switch_cpus_11.pwrStateResidencyTicks::OFF  22082501046                       # Cumulative time (in ticks) in various power states
system.switch_cpus_11.dtb.walker.pwrStateResidencyTicks::UNDEFINED 1315434208662                       # Cumulative time (in ticks) in various power states
system.switch_cpus_11.itb.walker.pwrStateResidencyTicks::UNDEFINED 1315434208662                       # Cumulative time (in ticks) in various power states
system.cpu_voltage_domain.voltage                   1                       # Voltage in Volts
system.switch_cpus1.numPwrStateTransitions            1                       # Number of power state transitions
system.switch_cpus1.pwrStateResidencyTicks::UNDEFINED 1293351707616                       # Cumulative time (in ticks) in various power states
system.switch_cpus1.pwrStateResidencyTicks::OFF  22082501046                       # Cumulative time (in ticks) in various power states
system.switch_cpus1.dtb.walker.pwrStateResidencyTicks::UNDEFINED 1315434208662                       # Cumulative time (in ticks) in various power states
system.switch_cpus1.itb.walker.pwrStateResidencyTicks::UNDEFINED 1315434208662                       # Cumulative time (in ticks) in various power states
system.mem_ctrls.pwrStateResidencyTicks::UNDEFINED 1315434208662                       # Cumulative time (in ticks) in various power states
system.mem_ctrls.bytes_read::.cpu0.inst            64                       # Number of bytes read from this memory
system.mem_ctrls.bytes_read::.cpu0.data           128                       # Number of bytes read from this memory
system.mem_ctrls.bytes_read::.cpu1.inst            64                       # Number of bytes read from this memory
system.mem_ctrls.bytes_read::.cpu1.data            64                       # Number of bytes read from this memory
system.mem_ctrls.bytes_read::.switch_cpus0.inst        59072                       # Number of bytes read from this memory
system.mem_ctrls.bytes_read::.switch_cpus0.data        10560                       # Number of bytes read from this memory
system.mem_ctrls.bytes_read::.switch_cpus1.inst        12672                       # Number of bytes read from this memory
system.mem_ctrls.bytes_read::.switch_cpus1.data        65920                       # Number of bytes read from this memory
system.mem_ctrls.bytes_read::.switch_cpus_10.inst        35072                       # Number of bytes read from this memory
system.mem_ctrls.bytes_read::.switch_cpus_10.data         9408                       # Number of bytes read from this memory
system.mem_ctrls.bytes_read::.switch_cpus_11.inst         5504                       # Number of bytes read from this memory
system.mem_ctrls.bytes_read::.switch_cpus_11.data      1608256                       # Number of bytes read from this memory
system.mem_ctrls.bytes_read::total            1806784                       # Number of bytes read from this memory
system.mem_ctrls.bytes_inst_read::.cpu0.inst           64                       # Number of instructions bytes read from this memory
system.mem_ctrls.bytes_inst_read::.cpu1.inst           64                       # Number of instructions bytes read from this memory
system.mem_ctrls.bytes_inst_read::.switch_cpus0.inst        59072                       # Number of instructions bytes read from this memory
system.mem_ctrls.bytes_inst_read::.switch_cpus1.inst        12672                       # Number of instructions bytes read from this memory
system.mem_ctrls.bytes_inst_read::.switch_cpus_10.inst        35072                       # Number of instructions bytes read from this memory
system.mem_ctrls.bytes_inst_read::.switch_cpus_11.inst         5504                       # Number of instructions bytes read from this memory
system.mem_ctrls.bytes_inst_read::total        112448                       # Number of instructions bytes read from this memory
system.mem_ctrls.bytes_written::.switch_cpus1.data           64                       # Number of bytes written to this memory
system.mem_ctrls.bytes_written::total              64                       # Number of bytes written to this memory
system.mem_ctrls.num_reads::.cpu0.inst              1                       # Number of read requests responded to by this memory
system.mem_ctrls.num_reads::.cpu0.data              2                       # Number of read requests responded to by this memory
system.mem_ctrls.num_reads::.cpu1.inst              1                       # Number of read requests responded to by this memory
system.mem_ctrls.num_reads::.cpu1.data              1                       # Number of read requests responded to by this memory
system.mem_ctrls.num_reads::.switch_cpus0.inst          923                       # Number of read requests responded to by this memory
system.mem_ctrls.num_reads::.switch_cpus0.data          165                       # Number of read requests responded to by this memory
system.mem_ctrls.num_reads::.switch_cpus1.inst          198                       # Number of read requests responded to by this memory
system.mem_ctrls.num_reads::.switch_cpus1.data         1030                       # Number of read requests responded to by this memory
system.mem_ctrls.num_reads::.switch_cpus_10.inst          548                       # Number of read requests responded to by this memory
system.mem_ctrls.num_reads::.switch_cpus_10.data          147                       # Number of read requests responded to by this memory
system.mem_ctrls.num_reads::.switch_cpus_11.inst           86                       # Number of read requests responded to by this memory
system.mem_ctrls.num_reads::.switch_cpus_11.data        25129                       # Number of read requests responded to by this memory
system.mem_ctrls.num_reads::total               28231                       # Number of read requests responded to by this memory
system.mem_ctrls.num_writes::.switch_cpus1.data            1                       # Number of write requests responded to by this memory
system.mem_ctrls.num_writes::total                  1                       # Number of write requests responded to by this memory
system.mem_ctrls.bw_read::.cpu0.inst             2898                       # Total read bandwidth from this memory (bytes/s)
system.mem_ctrls.bw_read::.cpu0.data             5796                       # Total read bandwidth from this memory (bytes/s)
system.mem_ctrls.bw_read::.cpu1.inst             2898                       # Total read bandwidth from this memory (bytes/s)
system.mem_ctrls.bw_read::.cpu1.data             2898                       # Total read bandwidth from this memory (bytes/s)
system.mem_ctrls.bw_read::.switch_cpus0.inst      2675059                       # Total read bandwidth from this memory (bytes/s)
system.mem_ctrls.bw_read::.switch_cpus0.data       478207                       # Total read bandwidth from this memory (bytes/s)
system.mem_ctrls.bw_read::.switch_cpus1.inst       573848                       # Total read bandwidth from this memory (bytes/s)
system.mem_ctrls.bw_read::.switch_cpus1.data      2985169                       # Total read bandwidth from this memory (bytes/s)
system.mem_ctrls.bw_read::.switch_cpus_10.inst      1588226                       # Total read bandwidth from this memory (bytes/s)
system.mem_ctrls.bw_read::.switch_cpus_10.data       426039                       # Total read bandwidth from this memory (bytes/s)
system.mem_ctrls.bw_read::.switch_cpus_11.inst       249247                       # Total read bandwidth from this memory (bytes/s)
system.mem_ctrls.bw_read::.switch_cpus_11.data     72829432                       # Total read bandwidth from this memory (bytes/s)
system.mem_ctrls.bw_read::total              81819718                       # Total read bandwidth from this memory (bytes/s)
system.mem_ctrls.bw_inst_read::.cpu0.inst         2898                       # Instruction read bandwidth from this memory (bytes/s)
system.mem_ctrls.bw_inst_read::.cpu1.inst         2898                       # Instruction read bandwidth from this memory (bytes/s)
system.mem_ctrls.bw_inst_read::.switch_cpus0.inst      2675059                       # Instruction read bandwidth from this memory (bytes/s)
system.mem_ctrls.bw_inst_read::.switch_cpus1.inst       573848                       # Instruction read bandwidth from this memory (bytes/s)
system.mem_ctrls.bw_inst_read::.switch_cpus_10.inst      1588226                       # Instruction read bandwidth from this memory (bytes/s)
system.mem_ctrls.bw_inst_read::.switch_cpus_11.inst       249247                       # Instruction read bandwidth from this memory (bytes/s)
system.mem_ctrls.bw_inst_read::total          5092177                       # Instruction read bandwidth from this memory (bytes/s)
system.mem_ctrls.bw_write::.switch_cpus1.data         2898                       # Write bandwidth from this memory (bytes/s)
system.mem_ctrls.bw_write::total                 2898                       # Write bandwidth from this memory (bytes/s)
system.mem_ctrls.bw_total::.cpu0.inst            2898                       # Total bandwidth to/from this memory (bytes/s)
system.mem_ctrls.bw_total::.cpu0.data            5796                       # Total bandwidth to/from this memory (bytes/s)
system.mem_ctrls.bw_total::.cpu1.inst            2898                       # Total bandwidth to/from this memory (bytes/s)
system.mem_ctrls.bw_total::.cpu1.data            2898                       # Total bandwidth to/from this memory (bytes/s)
system.mem_ctrls.bw_total::.switch_cpus0.inst      2675059                       # Total bandwidth to/from this memory (bytes/s)
system.mem_ctrls.bw_total::.switch_cpus0.data       478207                       # Total bandwidth to/from this memory (bytes/s)
system.mem_ctrls.bw_total::.switch_cpus1.inst       573848                       # Total bandwidth to/from this memory (bytes/s)
system.mem_ctrls.bw_total::.switch_cpus1.data      2988067                       # Total bandwidth to/from this memory (bytes/s)
system.mem_ctrls.bw_total::.switch_cpus_10.inst      1588226                       # Total bandwidth to/from this memory (bytes/s)
system.mem_ctrls.bw_total::.switch_cpus_10.data       426039                       # Total bandwidth to/from this memory (bytes/s)
system.mem_ctrls.bw_total::.switch_cpus_11.inst       249247                       # Total bandwidth to/from this memory (bytes/s)
system.mem_ctrls.bw_total::.switch_cpus_11.data     72829432                       # Total bandwidth to/from this memory (bytes/s)
system.mem_ctrls.bw_total::total             81822616                       # Total bandwidth to/from this memory (bytes/s)
system.cpu_clk_domain.clock                       417                       # Clock period in ticks

---------- End Simulation Statistics   ----------
