
---------- Begin Simulation Statistics ----------
final_tick                               1318800336912                       # Number of ticks from beginning of simulation (restored from checkpoints and never reset)
host_inst_rate                                 146176                       # Simulator instruction rate (inst/s)
host_mem_usage                                4559796                       # Number of bytes of host memory used
host_op_rate                                   314434                       # Simulator op (including micro ops) rate (op/s)
host_seconds                                   691.06                       # Real time elapsed on the host
host_tick_rate                               36825671                       # Simulator tick rate (ticks/s)
sim_freq                                 1000000000000                       # Frequency of simulated ticks
sim_insts                                   101015870                       # Number of instructions simulated
sim_ops                                     217291837                       # Number of ops (including micro ops) simulated
sim_seconds                                  0.025449                       # Number of seconds simulated
sim_ticks                                 25448629296                       # Number of ticks simulated
system.cpu0.committedInsts                          2                       # Number of instructions committed
system.cpu0.committedOps                            4                       # Number of ops (including micro ops) committed
system.cpu0.dtb.rdAccesses                          0                       # TLB accesses on read requests
system.cpu0.dtb.rdMisses                            0                       # TLB misses on read requests
system.cpu0.dtb.wrAccesses                          0                       # TLB accesses on write requests
system.cpu0.dtb.wrMisses                            0                       # TLB misses on write requests
system.cpu0.idle_fraction                           0                       # Percentage of idle cycles
system.cpu0.itb.rdAccesses                          0                       # TLB accesses on read requests
system.cpu0.itb.rdMisses                            0                       # TLB misses on read requests
system.cpu0.itb.wrAccesses                          2                       # TLB accesses on write requests
system.cpu0.itb.wrMisses                            0                       # TLB misses on write requests
system.cpu0.not_idle_fraction                       1                       # Percentage of non-idle cycles
system.cpu0.numCycles                               4                       # number of cpu cycles simulated
system.cpu0.numWorkItemsCompleted                   0                       # number of work items this cpu completed
system.cpu0.numWorkItemsStarted                     0                       # number of work items this cpu started
system.cpu0.num_busy_cycles                         4                       # Number of busy cycles
system.cpu0.num_cc_register_reads                   1                       # number of times the CC registers were read
system.cpu0.num_cc_register_writes                  4                       # number of times the CC registers were written
system.cpu0.num_conditional_control_insts            0                       # number of instructions that are conditional controls
system.cpu0.num_fp_alu_accesses                     0                       # Number of float alu accesses
system.cpu0.num_fp_insts                            0                       # number of float instructions
system.cpu0.num_fp_register_reads                   0                       # number of times the floating registers were read
system.cpu0.num_fp_register_writes                  0                       # number of times the floating registers were written
system.cpu0.num_func_calls                          0                       # number of times a function call or return occured
system.cpu0.num_idle_cycles                         0                       # Number of idle cycles
system.cpu0.num_int_alu_accesses                    4                       # Number of integer alu accesses
system.cpu0.num_int_insts                           4                       # number of integer instructions
system.cpu0.num_int_register_reads                  4                       # number of times the integer registers were read
system.cpu0.num_int_register_writes                 4                       # number of times the integer registers were written
system.cpu0.num_load_insts                          0                       # Number of load instructions
system.cpu0.num_mem_refs                            0                       # number of memory refs
system.cpu0.num_store_insts                         0                       # Number of store instructions
system.cpu0.num_vec_alu_accesses                    0                       # Number of vector alu accesses
system.cpu0.num_vec_insts                           0                       # number of vector instructions
system.cpu0.num_vec_register_reads                  0                       # number of times the vector registers were read
system.cpu0.num_vec_register_writes                 0                       # number of times the vector registers were written
system.cpu0.op_class::No_OpClass                    0      0.00%      0.00% # Class of executed instruction
system.cpu0.op_class::IntAlu                        4    100.00%    100.00% # Class of executed instruction
system.cpu0.op_class::IntMult                       0      0.00%    100.00% # Class of executed instruction
system.cpu0.op_class::IntDiv                        0      0.00%    100.00% # Class of executed instruction
system.cpu0.op_class::FloatAdd                      0      0.00%    100.00% # Class of executed instruction
system.cpu0.op_class::FloatCmp                      0      0.00%    100.00% # Class of executed instruction
system.cpu0.op_class::FloatCvt                      0      0.00%    100.00% # Class of executed instruction
system.cpu0.op_class::FloatMult                     0      0.00%    100.00% # Class of executed instruction
system.cpu0.op_class::FloatMultAcc                  0      0.00%    100.00% # Class of executed instruction
system.cpu0.op_class::FloatDiv                      0      0.00%    100.00% # Class of executed instruction
system.cpu0.op_class::FloatMisc                     0      0.00%    100.00% # Class of executed instruction
system.cpu0.op_class::FloatSqrt                     0      0.00%    100.00% # Class of executed instruction
system.cpu0.op_class::SimdAdd                       0      0.00%    100.00% # Class of executed instruction
system.cpu0.op_class::SimdAddAcc                    0      0.00%    100.00% # Class of executed instruction
system.cpu0.op_class::SimdAlu                       0      0.00%    100.00% # Class of executed instruction
system.cpu0.op_class::SimdCmp                       0      0.00%    100.00% # Class of executed instruction
system.cpu0.op_class::SimdCvt                       0      0.00%    100.00% # Class of executed instruction
system.cpu0.op_class::SimdMisc                      0      0.00%    100.00% # Class of executed instruction
system.cpu0.op_class::SimdMult                      0      0.00%    100.00% # Class of executed instruction
system.cpu0.op_class::SimdMultAcc                   0      0.00%    100.00% # Class of executed instruction
system.cpu0.op_class::SimdShift                     0      0.00%    100.00% # Class of executed instruction
system.cpu0.op_class::SimdShiftAcc                  0      0.00%    100.00% # Class of executed instruction
system.cpu0.op_class::SimdDiv                       0      0.00%    100.00% # Class of executed instruction
system.cpu0.op_class::SimdSqrt                      0      0.00%    100.00% # Class of executed instruction
system.cpu0.op_class::SimdFloatAdd                  0      0.00%    100.00% # Class of executed instruction
system.cpu0.op_class::SimdFloatAlu                  0      0.00%    100.00% # Class of executed instruction
system.cpu0.op_class::SimdFloatCmp                  0      0.00%    100.00% # Class of executed instruction
system.cpu0.op_class::SimdFloatCvt                  0      0.00%    100.00% # Class of executed instruction
system.cpu0.op_class::SimdFloatDiv                  0      0.00%    100.00% # Class of executed instruction
system.cpu0.op_class::SimdFloatMisc                 0      0.00%    100.00% # Class of executed instruction
system.cpu0.op_class::SimdFloatMult                 0      0.00%    100.00% # Class of executed instruction
system.cpu0.op_class::SimdFloatMultAcc              0      0.00%    100.00% # Class of executed instruction
system.cpu0.op_class::SimdFloatSqrt                 0      0.00%    100.00% # Class of executed instruction
system.cpu0.op_class::SimdReduceAdd                 0      0.00%    100.00% # Class of executed instruction
system.cpu0.op_class::SimdReduceAlu                 0      0.00%    100.00% # Class of executed instruction
system.cpu0.op_class::SimdReduceCmp                 0      0.00%    100.00% # Class of executed instruction
system.cpu0.op_class::SimdFloatReduceAdd            0      0.00%    100.00% # Class of executed instruction
system.cpu0.op_class::SimdFloatReduceCmp            0      0.00%    100.00% # Class of executed instruction
system.cpu0.op_class::SimdAes                       0      0.00%    100.00% # Class of executed instruction
system.cpu0.op_class::SimdAesMix                    0      0.00%    100.00% # Class of executed instruction
system.cpu0.op_class::SimdSha1Hash                  0      0.00%    100.00% # Class of executed instruction
system.cpu0.op_class::SimdSha1Hash2                 0      0.00%    100.00% # Class of executed instruction
system.cpu0.op_class::SimdSha256Hash                0      0.00%    100.00% # Class of executed instruction
system.cpu0.op_class::SimdSha256Hash2               0      0.00%    100.00% # Class of executed instruction
system.cpu0.op_class::SimdShaSigma2                 0      0.00%    100.00% # Class of executed instruction
system.cpu0.op_class::SimdShaSigma3                 0      0.00%    100.00% # Class of executed instruction
system.cpu0.op_class::SimdPredAlu                   0      0.00%    100.00% # Class of executed instruction
system.cpu0.op_class::MemRead                       0      0.00%    100.00% # Class of executed instruction
system.cpu0.op_class::MemWrite                      0      0.00%    100.00% # Class of executed instruction
system.cpu0.op_class::FloatMemRead                  0      0.00%    100.00% # Class of executed instruction
system.cpu0.op_class::FloatMemWrite                 0      0.00%    100.00% # Class of executed instruction
system.cpu0.op_class::IprAccess                     0      0.00%    100.00% # Class of executed instruction
system.cpu0.op_class::InstPrefetch                  0      0.00%    100.00% # Class of executed instruction
system.cpu0.op_class::total                         4                       # Class of executed instruction
system.cpu0.toL2Bus.snoop_filter.hit_multi_requests           47                       # Number of requests hitting in the snoop filter with multiple (>1) holders of the requested data.
system.cpu0.toL2Bus.snoop_filter.hit_multi_snoops            0                       # Number of snoops hitting in the snoop filter with multiple (>1) holders of the requested data.
system.cpu0.toL2Bus.snoop_filter.hit_single_requests        12876                       # Number of requests hitting in the snoop filter with a single holder of the requested data.
system.cpu0.toL2Bus.snoop_filter.hit_single_snoops          591                       # Number of snoops hitting in the snoop filter with a single holder of the requested data.
system.cpu0.toL2Bus.snoop_filter.tot_requests        26772                       # Total number of requests made to the snoop filter.
system.cpu0.toL2Bus.snoop_filter.tot_snoops          591                       # Total number of snoops made to the snoop filter.
system.cpu0.toL3Bus.snoop_filter.hit_multi_requests            0                       # Number of requests hitting in the snoop filter with multiple (>1) holders of the requested data.
system.cpu0.toL3Bus.snoop_filter.hit_multi_snoops            0                       # Number of snoops hitting in the snoop filter with multiple (>1) holders of the requested data.
system.cpu0.toL3Bus.snoop_filter.hit_single_requests         2625                       # Number of requests hitting in the snoop filter with a single holder of the requested data.
system.cpu0.toL3Bus.snoop_filter.hit_single_snoops            0                       # Number of snoops hitting in the snoop filter with a single holder of the requested data.
system.cpu0.toL3Bus.snoop_filter.tot_requests         9776                       # Total number of requests made to the snoop filter.
system.cpu0.toL3Bus.snoop_filter.tot_snoops            0                       # Total number of snoops made to the snoop filter.
system.cpu0.workload.numSyscalls                    1                       # Number of system calls
system.cpu1.Branches                                1                       # Number of branches fetched
system.cpu1.committedInsts                          1                       # Number of instructions committed
system.cpu1.committedOps                            5                       # Number of ops (including micro ops) committed
system.cpu1.dtb.rdAccesses                          0                       # TLB accesses on read requests
system.cpu1.dtb.rdMisses                            0                       # TLB misses on read requests
system.cpu1.dtb.wrAccesses                          1                       # TLB accesses on write requests
system.cpu1.dtb.wrMisses                            0                       # TLB misses on write requests
system.cpu1.idle_fraction                           0                       # Percentage of idle cycles
system.cpu1.itb.rdAccesses                          0                       # TLB accesses on read requests
system.cpu1.itb.rdMisses                            0                       # TLB misses on read requests
system.cpu1.itb.wrAccesses                          2                       # TLB accesses on write requests
system.cpu1.itb.wrMisses                            0                       # TLB misses on write requests
system.cpu1.not_idle_fraction                       1                       # Percentage of non-idle cycles
system.cpu1.numCycles                               6                       # number of cpu cycles simulated
system.cpu1.numWorkItemsCompleted                   0                       # number of work items this cpu completed
system.cpu1.numWorkItemsStarted                     0                       # number of work items this cpu started
system.cpu1.num_busy_cycles                         6                       # Number of busy cycles
system.cpu1.num_conditional_control_insts            0                       # number of instructions that are conditional controls
system.cpu1.num_fp_alu_accesses                     0                       # Number of float alu accesses
system.cpu1.num_fp_insts                            0                       # number of float instructions
system.cpu1.num_fp_register_reads                   0                       # number of times the floating registers were read
system.cpu1.num_fp_register_writes                  0                       # number of times the floating registers were written
system.cpu1.num_func_calls                          1                       # number of times a function call or return occured
system.cpu1.num_idle_cycles                         0                       # Number of idle cycles
system.cpu1.num_int_alu_accesses                    5                       # Number of integer alu accesses
system.cpu1.num_int_insts                           5                       # number of integer instructions
system.cpu1.num_int_register_reads                  9                       # number of times the integer registers were read
system.cpu1.num_int_register_writes                 3                       # number of times the integer registers were written
system.cpu1.num_load_insts                          0                       # Number of load instructions
system.cpu1.num_mem_refs                            1                       # number of memory refs
system.cpu1.num_store_insts                         1                       # Number of store instructions
system.cpu1.num_vec_alu_accesses                    0                       # Number of vector alu accesses
system.cpu1.num_vec_insts                           0                       # number of vector instructions
system.cpu1.num_vec_register_reads                  0                       # number of times the vector registers were read
system.cpu1.num_vec_register_writes                 0                       # number of times the vector registers were written
system.cpu1.op_class::No_OpClass                    0      0.00%      0.00% # Class of executed instruction
system.cpu1.op_class::IntAlu                        4     80.00%     80.00% # Class of executed instruction
system.cpu1.op_class::IntMult                       0      0.00%     80.00% # Class of executed instruction
system.cpu1.op_class::IntDiv                        0      0.00%     80.00% # Class of executed instruction
system.cpu1.op_class::FloatAdd                      0      0.00%     80.00% # Class of executed instruction
system.cpu1.op_class::FloatCmp                      0      0.00%     80.00% # Class of executed instruction
system.cpu1.op_class::FloatCvt                      0      0.00%     80.00% # Class of executed instruction
system.cpu1.op_class::FloatMult                     0      0.00%     80.00% # Class of executed instruction
system.cpu1.op_class::FloatMultAcc                  0      0.00%     80.00% # Class of executed instruction
system.cpu1.op_class::FloatDiv                      0      0.00%     80.00% # Class of executed instruction
system.cpu1.op_class::FloatMisc                     0      0.00%     80.00% # Class of executed instruction
system.cpu1.op_class::FloatSqrt                     0      0.00%     80.00% # Class of executed instruction
system.cpu1.op_class::SimdAdd                       0      0.00%     80.00% # Class of executed instruction
system.cpu1.op_class::SimdAddAcc                    0      0.00%     80.00% # Class of executed instruction
system.cpu1.op_class::SimdAlu                       0      0.00%     80.00% # Class of executed instruction
system.cpu1.op_class::SimdCmp                       0      0.00%     80.00% # Class of executed instruction
system.cpu1.op_class::SimdCvt                       0      0.00%     80.00% # Class of executed instruction
system.cpu1.op_class::SimdMisc                      0      0.00%     80.00% # Class of executed instruction
system.cpu1.op_class::SimdMult                      0      0.00%     80.00% # Class of executed instruction
system.cpu1.op_class::SimdMultAcc                   0      0.00%     80.00% # Class of executed instruction
system.cpu1.op_class::SimdShift                     0      0.00%     80.00% # Class of executed instruction
system.cpu1.op_class::SimdShiftAcc                  0      0.00%     80.00% # Class of executed instruction
system.cpu1.op_class::SimdDiv                       0      0.00%     80.00% # Class of executed instruction
system.cpu1.op_class::SimdSqrt                      0      0.00%     80.00% # Class of executed instruction
system.cpu1.op_class::SimdFloatAdd                  0      0.00%     80.00% # Class of executed instruction
system.cpu1.op_class::SimdFloatAlu                  0      0.00%     80.00% # Class of executed instruction
system.cpu1.op_class::SimdFloatCmp                  0      0.00%     80.00% # Class of executed instruction
system.cpu1.op_class::SimdFloatCvt                  0      0.00%     80.00% # Class of executed instruction
system.cpu1.op_class::SimdFloatDiv                  0      0.00%     80.00% # Class of executed instruction
system.cpu1.op_class::SimdFloatMisc                 0      0.00%     80.00% # Class of executed instruction
system.cpu1.op_class::SimdFloatMult                 0      0.00%     80.00% # Class of executed instruction
system.cpu1.op_class::SimdFloatMultAcc              0      0.00%     80.00% # Class of executed instruction
system.cpu1.op_class::SimdFloatSqrt                 0      0.00%     80.00% # Class of executed instruction
system.cpu1.op_class::SimdReduceAdd                 0      0.00%     80.00% # Class of executed instruction
system.cpu1.op_class::SimdReduceAlu                 0      0.00%     80.00% # Class of executed instruction
system.cpu1.op_class::SimdReduceCmp                 0      0.00%     80.00% # Class of executed instruction
system.cpu1.op_class::SimdFloatReduceAdd            0      0.00%     80.00% # Class of executed instruction
system.cpu1.op_class::SimdFloatReduceCmp            0      0.00%     80.00% # Class of executed instruction
system.cpu1.op_class::SimdAes                       0      0.00%     80.00% # Class of executed instruction
system.cpu1.op_class::SimdAesMix                    0      0.00%     80.00% # Class of executed instruction
system.cpu1.op_class::SimdSha1Hash                  0      0.00%     80.00% # Class of executed instruction
system.cpu1.op_class::SimdSha1Hash2                 0      0.00%     80.00% # Class of executed instruction
system.cpu1.op_class::SimdSha256Hash                0      0.00%     80.00% # Class of executed instruction
system.cpu1.op_class::SimdSha256Hash2               0      0.00%     80.00% # Class of executed instruction
system.cpu1.op_class::SimdShaSigma2                 0      0.00%     80.00% # Class of executed instruction
system.cpu1.op_class::SimdShaSigma3                 0      0.00%     80.00% # Class of executed instruction
system.cpu1.op_class::SimdPredAlu                   0      0.00%     80.00% # Class of executed instruction
system.cpu1.op_class::MemRead                       0      0.00%     80.00% # Class of executed instruction
system.cpu1.op_class::MemWrite                      1     20.00%    100.00% # Class of executed instruction
system.cpu1.op_class::FloatMemRead                  0      0.00%    100.00% # Class of executed instruction
system.cpu1.op_class::FloatMemWrite                 0      0.00%    100.00% # Class of executed instruction
system.cpu1.op_class::IprAccess                     0      0.00%    100.00% # Class of executed instruction
system.cpu1.op_class::InstPrefetch                  0      0.00%    100.00% # Class of executed instruction
system.cpu1.op_class::total                         5                       # Class of executed instruction
system.cpu1.toL2Bus.snoop_filter.hit_multi_requests           46                       # Number of requests hitting in the snoop filter with multiple (>1) holders of the requested data.
system.cpu1.toL2Bus.snoop_filter.hit_multi_snoops            0                       # Number of snoops hitting in the snoop filter with multiple (>1) holders of the requested data.
system.cpu1.toL2Bus.snoop_filter.hit_single_requests        56184                       # Number of requests hitting in the snoop filter with a single holder of the requested data.
system.cpu1.toL2Bus.snoop_filter.hit_single_snoops          492                       # Number of snoops hitting in the snoop filter with a single holder of the requested data.
system.cpu1.toL2Bus.snoop_filter.tot_requests       113167                       # Total number of requests made to the snoop filter.
system.cpu1.toL2Bus.snoop_filter.tot_snoops          492                       # Total number of snoops made to the snoop filter.
system.cpu1.toL3Bus.snoop_filter.hit_multi_requests            0                       # Number of requests hitting in the snoop filter with multiple (>1) holders of the requested data.
system.cpu1.toL3Bus.snoop_filter.hit_multi_snoops            0                       # Number of snoops hitting in the snoop filter with multiple (>1) holders of the requested data.
system.cpu1.toL3Bus.snoop_filter.hit_single_requests        25901                       # Number of requests hitting in the snoop filter with a single holder of the requested data.
system.cpu1.toL3Bus.snoop_filter.hit_single_snoops          233                       # Number of snoops hitting in the snoop filter with a single holder of the requested data.
system.cpu1.toL3Bus.snoop_filter.tot_requests        56222                       # Total number of requests made to the snoop filter.
system.cpu1.toL3Bus.snoop_filter.tot_snoops          233                       # Total number of snoops made to the snoop filter.
system.cpu1.workload.numSyscalls                16955                       # Number of system calls
system.membus.snoop_filter.hit_multi_requests            0                       # Number of requests hitting in the snoop filter with multiple (>1) holders of the requested data.
system.membus.snoop_filter.hit_multi_snoops            0                       # Number of snoops hitting in the snoop filter with multiple (>1) holders of the requested data.
system.membus.snoop_filter.hit_single_requests          599                       # Number of requests hitting in the snoop filter with a single holder of the requested data.
system.membus.snoop_filter.hit_single_snoops            0                       # Number of snoops hitting in the snoop filter with a single holder of the requested data.
system.membus.snoop_filter.tot_requests         37897                       # Total number of requests made to the snoop filter.
system.membus.snoop_filter.tot_snoops               0                       # Total number of snoops made to the snoop filter.
system.switch_cpus0.Branches                   255810                       # Number of branches fetched
system.switch_cpus0.committedInsts            1000002                       # Number of instructions committed
system.switch_cpus0.committedOps              2500851                       # Number of ops (including micro ops) committed
system.switch_cpus0.dtb.rdAccesses             269795                       # TLB accesses on read requests
system.switch_cpus0.dtb.rdMisses                  100                       # TLB misses on read requests
system.switch_cpus0.dtb.wrAccesses              39263                       # TLB accesses on write requests
system.switch_cpus0.dtb.wrMisses                    9                       # TLB misses on write requests
system.switch_cpus0.idle_fraction            0.000000                       # Percentage of idle cycles
system.switch_cpus0.itb.rdAccesses                  0                       # TLB accesses on read requests
system.switch_cpus0.itb.rdMisses                    0                       # TLB misses on read requests
system.switch_cpus0.itb.wrAccesses            1291116                       # TLB accesses on write requests
system.switch_cpus0.itb.wrMisses                   30                       # TLB misses on write requests
system.switch_cpus0.not_idle_fraction        1.000000                       # Percentage of non-idle cycles
system.switch_cpus0.numCycles                 5010763                       # number of cpu cycles simulated
system.switch_cpus0.numWorkItemsCompleted            0                       # number of work items this cpu completed
system.switch_cpus0.numWorkItemsStarted             0                       # number of work items this cpu started
system.switch_cpus0.num_busy_cycles      5010762.507363                       # Number of busy cycles
system.switch_cpus0.num_cc_register_reads      2113136                       # number of times the CC registers were read
system.switch_cpus0.num_cc_register_writes       710683                       # number of times the CC registers were written
system.switch_cpus0.num_conditional_control_insts       188505                       # number of instructions that are conditional controls
system.switch_cpus0.num_fp_alu_accesses        303641                       # Number of float alu accesses
system.switch_cpus0.num_fp_insts               303641                       # number of float instructions
system.switch_cpus0.num_fp_register_reads       510265                       # number of times the floating registers were read
system.switch_cpus0.num_fp_register_writes       256758                       # number of times the floating registers were written
system.switch_cpus0.num_func_calls              38683                       # number of times a function call or return occured
system.switch_cpus0.num_idle_cycles          0.492637                       # Number of idle cycles
system.switch_cpus0.num_int_alu_accesses      2259108                       # Number of integer alu accesses
system.switch_cpus0.num_int_insts             2259108                       # number of integer instructions
system.switch_cpus0.num_int_register_reads      4297908                       # number of times the integer registers were read
system.switch_cpus0.num_int_register_writes      1935891                       # number of times the integer registers were written
system.switch_cpus0.num_load_insts             267905                       # Number of load instructions
system.switch_cpus0.num_mem_refs               307166                       # number of memory refs
system.switch_cpus0.num_store_insts             39261                       # Number of store instructions
system.switch_cpus0.num_vec_alu_accesses            0                       # Number of vector alu accesses
system.switch_cpus0.num_vec_insts                   0                       # number of vector instructions
system.switch_cpus0.num_vec_register_reads            0                       # number of times the vector registers were read
system.switch_cpus0.num_vec_register_writes            0                       # number of times the vector registers were written
system.switch_cpus0.op_class::No_OpClass        48847      1.95%      1.95% # Class of executed instruction
system.switch_cpus0.op_class::IntAlu          1896344     75.83%     77.78% # Class of executed instruction
system.switch_cpus0.op_class::IntMult           10350      0.41%     78.19% # Class of executed instruction
system.switch_cpus0.op_class::IntDiv             1208      0.05%     78.24% # Class of executed instruction
system.switch_cpus0.op_class::FloatAdd           1032      0.04%     78.28% # Class of executed instruction
system.switch_cpus0.op_class::FloatCmp              0      0.00%     78.28% # Class of executed instruction
system.switch_cpus0.op_class::FloatCvt              0      0.00%     78.28% # Class of executed instruction
system.switch_cpus0.op_class::FloatMult             0      0.00%     78.28% # Class of executed instruction
system.switch_cpus0.op_class::FloatMultAcc            0      0.00%     78.28% # Class of executed instruction
system.switch_cpus0.op_class::FloatDiv              0      0.00%     78.28% # Class of executed instruction
system.switch_cpus0.op_class::FloatMisc             0      0.00%     78.28% # Class of executed instruction
system.switch_cpus0.op_class::FloatSqrt             0      0.00%     78.28% # Class of executed instruction
system.switch_cpus0.op_class::SimdAdd           18316      0.73%     79.02% # Class of executed instruction
system.switch_cpus0.op_class::SimdAddAcc            0      0.00%     79.02% # Class of executed instruction
system.switch_cpus0.op_class::SimdAlu           96603      3.86%     82.88% # Class of executed instruction
system.switch_cpus0.op_class::SimdCmp               6      0.00%     82.88% # Class of executed instruction
system.switch_cpus0.op_class::SimdCvt           64674      2.59%     85.47% # Class of executed instruction
system.switch_cpus0.op_class::SimdMisc          46423      1.86%     87.32% # Class of executed instruction
system.switch_cpus0.op_class::SimdMult              0      0.00%     87.32% # Class of executed instruction
system.switch_cpus0.op_class::SimdMultAcc            0      0.00%     87.32% # Class of executed instruction
system.switch_cpus0.op_class::SimdShift          9872      0.39%     87.72% # Class of executed instruction
system.switch_cpus0.op_class::SimdShiftAcc            0      0.00%     87.72% # Class of executed instruction
system.switch_cpus0.op_class::SimdDiv               0      0.00%     87.72% # Class of executed instruction
system.switch_cpus0.op_class::SimdSqrt              0      0.00%     87.72% # Class of executed instruction
system.switch_cpus0.op_class::SimdFloatAdd            0      0.00%     87.72% # Class of executed instruction
system.switch_cpus0.op_class::SimdFloatAlu            0      0.00%     87.72% # Class of executed instruction
system.switch_cpus0.op_class::SimdFloatCmp            0      0.00%     87.72% # Class of executed instruction
system.switch_cpus0.op_class::SimdFloatCvt           18      0.00%     87.72% # Class of executed instruction
system.switch_cpus0.op_class::SimdFloatDiv            0      0.00%     87.72% # Class of executed instruction
system.switch_cpus0.op_class::SimdFloatMisc            0      0.00%     87.72% # Class of executed instruction
system.switch_cpus0.op_class::SimdFloatMult            0      0.00%     87.72% # Class of executed instruction
system.switch_cpus0.op_class::SimdFloatMultAcc            0      0.00%     87.72% # Class of executed instruction
system.switch_cpus0.op_class::SimdFloatSqrt            0      0.00%     87.72% # Class of executed instruction
system.switch_cpus0.op_class::SimdReduceAdd            0      0.00%     87.72% # Class of executed instruction
system.switch_cpus0.op_class::SimdReduceAlu            0      0.00%     87.72% # Class of executed instruction
system.switch_cpus0.op_class::SimdReduceCmp            0      0.00%     87.72% # Class of executed instruction
system.switch_cpus0.op_class::SimdFloatReduceAdd            0      0.00%     87.72% # Class of executed instruction
system.switch_cpus0.op_class::SimdFloatReduceCmp            0      0.00%     87.72% # Class of executed instruction
system.switch_cpus0.op_class::SimdAes               0      0.00%     87.72% # Class of executed instruction
system.switch_cpus0.op_class::SimdAesMix            0      0.00%     87.72% # Class of executed instruction
system.switch_cpus0.op_class::SimdSha1Hash            0      0.00%     87.72% # Class of executed instruction
system.switch_cpus0.op_class::SimdSha1Hash2            0      0.00%     87.72% # Class of executed instruction
system.switch_cpus0.op_class::SimdSha256Hash            0      0.00%     87.72% # Class of executed instruction
system.switch_cpus0.op_class::SimdSha256Hash2            0      0.00%     87.72% # Class of executed instruction
system.switch_cpus0.op_class::SimdShaSigma2            0      0.00%     87.72% # Class of executed instruction
system.switch_cpus0.op_class::SimdShaSigma3            0      0.00%     87.72% # Class of executed instruction
system.switch_cpus0.op_class::SimdPredAlu            0      0.00%     87.72% # Class of executed instruction
system.switch_cpus0.op_class::MemRead          202379      8.09%     95.81% # Class of executed instruction
system.switch_cpus0.op_class::MemWrite          38745      1.55%     97.36% # Class of executed instruction
system.switch_cpus0.op_class::FloatMemRead        65526      2.62%     99.98% # Class of executed instruction
system.switch_cpus0.op_class::FloatMemWrite          516      0.02%    100.00% # Class of executed instruction
system.switch_cpus0.op_class::IprAccess             0      0.00%    100.00% # Class of executed instruction
system.switch_cpus0.op_class::InstPrefetch            0      0.00%    100.00% # Class of executed instruction
system.switch_cpus0.op_class::total           2500859                       # Class of executed instruction
system.switch_cpus1.Branches                   201990                       # Number of branches fetched
system.switch_cpus1.committedInsts             898666                       # Number of instructions committed
system.switch_cpus1.committedOps              1818580                       # Number of ops (including micro ops) committed
system.switch_cpus1.dtb.rdAccesses             262420                       # TLB accesses on read requests
system.switch_cpus1.dtb.rdMisses                   40                       # TLB misses on read requests
system.switch_cpus1.dtb.wrAccesses             191688                       # TLB accesses on write requests
system.switch_cpus1.dtb.wrMisses                    3                       # TLB misses on write requests
system.switch_cpus1.idle_fraction            0.000000                       # Percentage of idle cycles
system.switch_cpus1.itb.rdAccesses                  0                       # TLB accesses on read requests
system.switch_cpus1.itb.rdMisses                    0                       # TLB misses on read requests
system.switch_cpus1.itb.wrAccesses            1139406                       # TLB accesses on write requests
system.switch_cpus1.itb.wrMisses                   27                       # TLB misses on write requests
system.switch_cpus1.not_idle_fraction        1.000000                       # Percentage of non-idle cycles
system.switch_cpus1.numCycles                 5010763                       # number of cpu cycles simulated
system.switch_cpus1.numWorkItemsCompleted            0                       # number of work items this cpu completed
system.switch_cpus1.numWorkItemsStarted             0                       # number of work items this cpu started
system.switch_cpus1.num_busy_cycles      5010762.507363                       # Number of busy cycles
system.switch_cpus1.num_cc_register_reads       752615                       # number of times the CC registers were read
system.switch_cpus1.num_cc_register_writes       403688                       # number of times the CC registers were written
system.switch_cpus1.num_conditional_control_insts        92042                       # number of instructions that are conditional controls
system.switch_cpus1.num_fp_alu_accesses         14829                       # Number of float alu accesses
system.switch_cpus1.num_fp_insts                14829                       # number of float instructions
system.switch_cpus1.num_fp_register_reads        24893                       # number of times the floating registers were read
system.switch_cpus1.num_fp_register_writes        13043                       # number of times the floating registers were written
system.switch_cpus1.num_func_calls              95260                       # number of times a function call or return occured
system.switch_cpus1.num_idle_cycles          0.492637                       # Number of idle cycles
system.switch_cpus1.num_int_alu_accesses      1799877                       # Number of integer alu accesses
system.switch_cpus1.num_int_insts             1799877                       # number of integer instructions
system.switch_cpus1.num_int_register_reads      3815709                       # number of times the integer registers were read
system.switch_cpus1.num_int_register_writes      1411824                       # number of times the integer registers were written
system.switch_cpus1.num_load_insts             262418                       # Number of load instructions
system.switch_cpus1.num_mem_refs               454104                       # number of memory refs
system.switch_cpus1.num_store_insts            191686                       # Number of store instructions
system.switch_cpus1.num_vec_alu_accesses            0                       # Number of vector alu accesses
system.switch_cpus1.num_vec_insts                   0                       # number of vector instructions
system.switch_cpus1.num_vec_register_reads            0                       # number of times the vector registers were read
system.switch_cpus1.num_vec_register_writes            0                       # number of times the vector registers were written
system.switch_cpus1.op_class::No_OpClass         6044      0.33%      0.33% # Class of executed instruction
system.switch_cpus1.op_class::IntAlu          1344846     73.95%     74.28% # Class of executed instruction
system.switch_cpus1.op_class::IntMult             840      0.05%     74.33% # Class of executed instruction
system.switch_cpus1.op_class::IntDiv             2072      0.11%     74.44% # Class of executed instruction
system.switch_cpus1.op_class::FloatAdd            591      0.03%     74.48% # Class of executed instruction
system.switch_cpus1.op_class::FloatCmp              0      0.00%     74.48% # Class of executed instruction
system.switch_cpus1.op_class::FloatCvt              0      0.00%     74.48% # Class of executed instruction
system.switch_cpus1.op_class::FloatMult             0      0.00%     74.48% # Class of executed instruction
system.switch_cpus1.op_class::FloatMultAcc            0      0.00%     74.48% # Class of executed instruction
system.switch_cpus1.op_class::FloatDiv              0      0.00%     74.48% # Class of executed instruction
system.switch_cpus1.op_class::FloatMisc             0      0.00%     74.48% # Class of executed instruction
system.switch_cpus1.op_class::FloatSqrt             0      0.00%     74.48% # Class of executed instruction
system.switch_cpus1.op_class::SimdAdd               0      0.00%     74.48% # Class of executed instruction
system.switch_cpus1.op_class::SimdAddAcc            0      0.00%     74.48% # Class of executed instruction
system.switch_cpus1.op_class::SimdAlu            2372      0.13%     74.61% # Class of executed instruction
system.switch_cpus1.op_class::SimdCmp               0      0.00%     74.61% # Class of executed instruction
system.switch_cpus1.op_class::SimdCvt            2378      0.13%     74.74% # Class of executed instruction
system.switch_cpus1.op_class::SimdMisc           5333      0.29%     75.03% # Class of executed instruction
system.switch_cpus1.op_class::SimdMult              0      0.00%     75.03% # Class of executed instruction
system.switch_cpus1.op_class::SimdMultAcc            0      0.00%     75.03% # Class of executed instruction
system.switch_cpus1.op_class::SimdShift             0      0.00%     75.03% # Class of executed instruction
system.switch_cpus1.op_class::SimdShiftAcc            0      0.00%     75.03% # Class of executed instruction
system.switch_cpus1.op_class::SimdDiv               0      0.00%     75.03% # Class of executed instruction
system.switch_cpus1.op_class::SimdSqrt              0      0.00%     75.03% # Class of executed instruction
system.switch_cpus1.op_class::SimdFloatAdd            0      0.00%     75.03% # Class of executed instruction
system.switch_cpus1.op_class::SimdFloatAlu            0      0.00%     75.03% # Class of executed instruction
system.switch_cpus1.op_class::SimdFloatCmp            0      0.00%     75.03% # Class of executed instruction
system.switch_cpus1.op_class::SimdFloatCvt            0      0.00%     75.03% # Class of executed instruction
system.switch_cpus1.op_class::SimdFloatDiv            0      0.00%     75.03% # Class of executed instruction
system.switch_cpus1.op_class::SimdFloatMisc            0      0.00%     75.03% # Class of executed instruction
system.switch_cpus1.op_class::SimdFloatMult            0      0.00%     75.03% # Class of executed instruction
system.switch_cpus1.op_class::SimdFloatMultAcc            0      0.00%     75.03% # Class of executed instruction
system.switch_cpus1.op_class::SimdFloatSqrt            0      0.00%     75.03% # Class of executed instruction
system.switch_cpus1.op_class::SimdReduceAdd            0      0.00%     75.03% # Class of executed instruction
system.switch_cpus1.op_class::SimdReduceAlu            0      0.00%     75.03% # Class of executed instruction
system.switch_cpus1.op_class::SimdReduceCmp            0      0.00%     75.03% # Class of executed instruction
system.switch_cpus1.op_class::SimdFloatReduceAdd            0      0.00%     75.03% # Class of executed instruction
system.switch_cpus1.op_class::SimdFloatReduceCmp            0      0.00%     75.03% # Class of executed instruction
system.switch_cpus1.op_class::SimdAes               0      0.00%     75.03% # Class of executed instruction
system.switch_cpus1.op_class::SimdAesMix            0      0.00%     75.03% # Class of executed instruction
system.switch_cpus1.op_class::SimdSha1Hash            0      0.00%     75.03% # Class of executed instruction
system.switch_cpus1.op_class::SimdSha1Hash2            0      0.00%     75.03% # Class of executed instruction
system.switch_cpus1.op_class::SimdSha256Hash            0      0.00%     75.03% # Class of executed instruction
system.switch_cpus1.op_class::SimdSha256Hash2            0      0.00%     75.03% # Class of executed instruction
system.switch_cpus1.op_class::SimdShaSigma2            0      0.00%     75.03% # Class of executed instruction
system.switch_cpus1.op_class::SimdShaSigma3            0      0.00%     75.03% # Class of executed instruction
system.switch_cpus1.op_class::SimdPredAlu            0      0.00%     75.03% # Class of executed instruction
system.switch_cpus1.op_class::MemRead          260626     14.33%     89.36% # Class of executed instruction
system.switch_cpus1.op_class::MemWrite         191096     10.51%     99.87% # Class of executed instruction
system.switch_cpus1.op_class::FloatMemRead         1792      0.10%     99.97% # Class of executed instruction
system.switch_cpus1.op_class::FloatMemWrite          590      0.03%    100.00% # Class of executed instruction
system.switch_cpus1.op_class::IprAccess             0      0.00%    100.00% # Class of executed instruction
system.switch_cpus1.op_class::InstPrefetch            0      0.00%    100.00% # Class of executed instruction
system.switch_cpus1.op_class::total           1818580                       # Class of executed instruction
system.switch_cpus_10.branchPred.BTBCorrect            0                       # Number of correct BTB predictions (this stat may not work properly.
system.switch_cpus_10.branchPred.BTBHitPct     0.000000                       # BTB Hit Percentage
system.switch_cpus_10.branchPred.BTBHits            0                       # Number of BTB hits
system.switch_cpus_10.branchPred.BTBLookups     20883987                       # Number of BTB lookups
system.switch_cpus_10.branchPred.RASInCorrect           11                       # Number of incorrect RAS predictions.
system.switch_cpus_10.branchPred.condIncorrect      1438193                       # Number of conditional branches incorrect
system.switch_cpus_10.branchPred.condPredicted     22650971                       # Number of conditional branches predicted
system.switch_cpus_10.branchPred.indirectHits      7919661                       # Number of indirect target hits.
system.switch_cpus_10.branchPred.indirectLookups     20883987                       # Number of indirect predictor lookups.
system.switch_cpus_10.branchPred.indirectMisses     12964326                       # Number of indirect misses.
system.switch_cpus_10.branchPred.lookups     24344158                       # Number of BP lookups
system.switch_cpus_10.branchPred.usedRAS       744401                       # Number of times the RAS was used to get a target.
system.switch_cpus_10.branchPredindirectMispredicted      1012091                       # Number of mispredicted indirect branches.
system.switch_cpus_10.cc_regfile_reads       98342860                       # number of cc regfile reads
system.switch_cpus_10.cc_regfile_writes      40865066                       # number of cc regfile writes
system.switch_cpus_10.commit.amos                   0                       # Number of atomic instructions committed
system.switch_cpus_10.commit.branchMispredicts      1438193                       # The number of times a branch was mispredicted
system.switch_cpus_10.commit.branches        14317049                       # Number of branches committed
system.switch_cpus_10.commit.bw_lim_events      6385641                       # number cycles where commit BW limit reached
system.switch_cpus_10.commit.commitNonSpecStalls          189                       # The number of times commit has been forced to stall to communicate backwards
system.switch_cpus_10.commit.commitSquashedInsts     49757492                       # The number of squashed insts skipped by commit
system.switch_cpus_10.commit.committedInsts     49117197                       # Number of instructions committed
system.switch_cpus_10.commit.committedOps    111675786                       # Number of ops (including micro ops) committed
system.switch_cpus_10.commit.committed_per_cycle::samples     48681719                       # Number of insts commited each cycle
system.switch_cpus_10.commit.committed_per_cycle::mean     2.293998                       # Number of insts commited each cycle
system.switch_cpus_10.commit.committed_per_cycle::stdev     2.656373                       # Number of insts commited each cycle
system.switch_cpus_10.commit.committed_per_cycle::underflows            0      0.00%      0.00% # Number of insts commited each cycle
system.switch_cpus_10.commit.committed_per_cycle::0     16683224     34.27%     34.27% # Number of insts commited each cycle
system.switch_cpus_10.commit.committed_per_cycle::1      8248396     16.94%     51.21% # Number of insts commited each cycle
system.switch_cpus_10.commit.committed_per_cycle::2      7350032     15.10%     66.31% # Number of insts commited each cycle
system.switch_cpus_10.commit.committed_per_cycle::3      5658954     11.62%     77.94% # Number of insts commited each cycle
system.switch_cpus_10.commit.committed_per_cycle::4      2541477      5.22%     83.16% # Number of insts commited each cycle
system.switch_cpus_10.commit.committed_per_cycle::5       734597      1.51%     84.67% # Number of insts commited each cycle
system.switch_cpus_10.commit.committed_per_cycle::6       729343      1.50%     86.16% # Number of insts commited each cycle
system.switch_cpus_10.commit.committed_per_cycle::7       350055      0.72%     86.88% # Number of insts commited each cycle
system.switch_cpus_10.commit.committed_per_cycle::8      6385641     13.12%    100.00% # Number of insts commited each cycle
system.switch_cpus_10.commit.committed_per_cycle::overflows            0      0.00%    100.00% # Number of insts commited each cycle
system.switch_cpus_10.commit.committed_per_cycle::min_value            0                       # Number of insts commited each cycle
system.switch_cpus_10.commit.committed_per_cycle::max_value            8                       # Number of insts commited each cycle
system.switch_cpus_10.commit.committed_per_cycle::total     48681719                       # Number of insts commited each cycle
system.switch_cpus_10.commit.fp_insts         7761234                       # Number of committed floating point instructions.
system.switch_cpus_10.commit.function_calls       584402                       # Number of function calls committed.
system.switch_cpus_10.commit.int_insts      105560087                       # Number of committed integer instructions.
system.switch_cpus_10.commit.loads           10324517                       # Number of loads committed
system.switch_cpus_10.commit.membars                0                       # Number of memory barriers committed
system.switch_cpus_10.commit.op_class_0::No_OpClass      1236487      1.11%      1.11% # Class of committed instruction
system.switch_cpus_10.commit.op_class_0::IntAlu     91297583     81.75%     82.86% # Class of committed instruction
system.switch_cpus_10.commit.op_class_0::IntMult       468666      0.42%     83.28% # Class of committed instruction
system.switch_cpus_10.commit.op_class_0::IntDiv        16050      0.01%     83.29% # Class of committed instruction
system.switch_cpus_10.commit.op_class_0::FloatAdd        27028      0.02%     83.32% # Class of committed instruction
system.switch_cpus_10.commit.op_class_0::FloatCmp            0      0.00%     83.32% # Class of committed instruction
system.switch_cpus_10.commit.op_class_0::FloatCvt            0      0.00%     83.32% # Class of committed instruction
system.switch_cpus_10.commit.op_class_0::FloatMult            0      0.00%     83.32% # Class of committed instruction
system.switch_cpus_10.commit.op_class_0::FloatMultAcc            0      0.00%     83.32% # Class of committed instruction
system.switch_cpus_10.commit.op_class_0::FloatDiv            0      0.00%     83.32% # Class of committed instruction
system.switch_cpus_10.commit.op_class_0::FloatMisc            0      0.00%     83.32% # Class of committed instruction
system.switch_cpus_10.commit.op_class_0::FloatSqrt            0      0.00%     83.32% # Class of committed instruction
system.switch_cpus_10.commit.op_class_0::SimdAdd       470686      0.42%     83.74% # Class of committed instruction
system.switch_cpus_10.commit.op_class_0::SimdAddAcc            0      0.00%     83.74% # Class of committed instruction
system.switch_cpus_10.commit.op_class_0::SimdAlu      2383740      2.13%     85.87% # Class of committed instruction
system.switch_cpus_10.commit.op_class_0::SimdCmp         5538      0.00%     85.88% # Class of committed instruction
system.switch_cpus_10.commit.op_class_0::SimdCvt      1670472      1.50%     87.37% # Class of committed instruction
system.switch_cpus_10.commit.op_class_0::SimdMisc      1200464      1.07%     88.45% # Class of committed instruction
system.switch_cpus_10.commit.op_class_0::SimdMult            0      0.00%     88.45% # Class of committed instruction
system.switch_cpus_10.commit.op_class_0::SimdMultAcc            0      0.00%     88.45% # Class of committed instruction
system.switch_cpus_10.commit.op_class_0::SimdShift       261385      0.23%     88.68% # Class of committed instruction
system.switch_cpus_10.commit.op_class_0::SimdShiftAcc            0      0.00%     88.68% # Class of committed instruction
system.switch_cpus_10.commit.op_class_0::SimdDiv            0      0.00%     88.68% # Class of committed instruction
system.switch_cpus_10.commit.op_class_0::SimdSqrt            0      0.00%     88.68% # Class of committed instruction
system.switch_cpus_10.commit.op_class_0::SimdFloatAdd            0      0.00%     88.68% # Class of committed instruction
system.switch_cpus_10.commit.op_class_0::SimdFloatAlu            0      0.00%     88.68% # Class of committed instruction
system.switch_cpus_10.commit.op_class_0::SimdFloatCmp            0      0.00%     88.68% # Class of committed instruction
system.switch_cpus_10.commit.op_class_0::SimdFloatCvt           88      0.00%     88.68% # Class of committed instruction
system.switch_cpus_10.commit.op_class_0::SimdFloatDiv            0      0.00%     88.68% # Class of committed instruction
system.switch_cpus_10.commit.op_class_0::SimdFloatMisc            0      0.00%     88.68% # Class of committed instruction
system.switch_cpus_10.commit.op_class_0::SimdFloatMult            0      0.00%     88.68% # Class of committed instruction
system.switch_cpus_10.commit.op_class_0::SimdFloatMultAcc            0      0.00%     88.68% # Class of committed instruction
system.switch_cpus_10.commit.op_class_0::SimdFloatSqrt            0      0.00%     88.68% # Class of committed instruction
system.switch_cpus_10.commit.op_class_0::SimdReduceAdd            0      0.00%     88.68% # Class of committed instruction
system.switch_cpus_10.commit.op_class_0::SimdReduceAlu            0      0.00%     88.68% # Class of committed instruction
system.switch_cpus_10.commit.op_class_0::SimdReduceCmp            0      0.00%     88.68% # Class of committed instruction
system.switch_cpus_10.commit.op_class_0::SimdFloatReduceAdd            0      0.00%     88.68% # Class of committed instruction
system.switch_cpus_10.commit.op_class_0::SimdFloatReduceCmp            0      0.00%     88.68% # Class of committed instruction
system.switch_cpus_10.commit.op_class_0::SimdAes            0      0.00%     88.68% # Class of committed instruction
system.switch_cpus_10.commit.op_class_0::SimdAesMix            0      0.00%     88.68% # Class of committed instruction
system.switch_cpus_10.commit.op_class_0::SimdSha1Hash            0      0.00%     88.68% # Class of committed instruction
system.switch_cpus_10.commit.op_class_0::SimdSha1Hash2            0      0.00%     88.68% # Class of committed instruction
system.switch_cpus_10.commit.op_class_0::SimdSha256Hash            0      0.00%     88.68% # Class of committed instruction
system.switch_cpus_10.commit.op_class_0::SimdSha256Hash2            0      0.00%     88.68% # Class of committed instruction
system.switch_cpus_10.commit.op_class_0::SimdShaSigma2            0      0.00%     88.68% # Class of committed instruction
system.switch_cpus_10.commit.op_class_0::SimdShaSigma3            0      0.00%     88.68% # Class of committed instruction
system.switch_cpus_10.commit.op_class_0::SimdPredAlu            0      0.00%     88.68% # Class of committed instruction
system.switch_cpus_10.commit.op_class_0::MemRead      8622986      7.72%     96.41% # Class of committed instruction
system.switch_cpus_10.commit.op_class_0::MemWrite      2284097      2.05%     98.45% # Class of committed instruction
system.switch_cpus_10.commit.op_class_0::FloatMemRead      1701531      1.52%     99.97% # Class of committed instruction
system.switch_cpus_10.commit.op_class_0::FloatMemWrite        28985      0.03%    100.00% # Class of committed instruction
system.switch_cpus_10.commit.op_class_0::IprAccess            0      0.00%    100.00% # Class of committed instruction
system.switch_cpus_10.commit.op_class_0::InstPrefetch            0      0.00%    100.00% # Class of committed instruction
system.switch_cpus_10.commit.op_class_0::total    111675786                       # Class of committed instruction
system.switch_cpus_10.commit.refs            12637599                       # Number of memory references committed
system.switch_cpus_10.commit.swp_count              0                       # Number of s/w prefetches committed
system.switch_cpus_10.commit.vec_insts              0                       # Number of committed Vector instructions.
system.switch_cpus_10.committedInsts         49117197                       # Number of Instructions Simulated
system.switch_cpus_10.committedOps          111675786                       # Number of Ops (including micro ops) Simulated
system.switch_cpus_10.cpi                    1.140479                       # CPI: Cycles Per Instruction
system.switch_cpus_10.cpi_total              1.140479                       # CPI: Total CPI of All Threads
system.switch_cpus_10.decode.BlockedCycles      9194154                       # Number of cycles decode is blocked
system.switch_cpus_10.decode.DecodedInsts    179962787                       # Number of instructions handled by decode
system.switch_cpus_10.decode.IdleCycles      18398827                       # Number of cycles decode is idle
system.switch_cpus_10.decode.RunCycles       25188197                       # Number of cycles decode is running
system.switch_cpus_10.decode.SquashCycles      1443476                       # Number of cycles decode is squashing
system.switch_cpus_10.decode.UnblockCycles      1771626                       # Number of cycles decode is unblocking
system.switch_cpus_10.dtb.rdAccesses         13801007                       # TLB accesses on read requests
system.switch_cpus_10.dtb.rdMisses               1976                       # TLB misses on read requests
system.switch_cpus_10.dtb.wrAccesses          3098511                       # TLB accesses on write requests
system.switch_cpus_10.dtb.wrMisses                202                       # TLB misses on write requests
system.switch_cpus_10.fetch.Branches         24344158                       # Number of branches that fetch encountered
system.switch_cpus_10.fetch.CacheLines       10067159                       # Number of cache lines fetched
system.switch_cpus_10.fetch.Cycles           34087703                       # Number of cycles fetch has run and was not squashing or blocked
system.switch_cpus_10.fetch.IcacheSquashes       518237                       # Number of outstanding Icache misses that were squashed
system.switch_cpus_10.fetch.IcacheWaitRetryStallCycles           89                       # Number of stall cycles due to full MSHR
system.switch_cpus_10.fetch.Insts            83481269                       # Number of instructions fetch has processed
system.switch_cpus_10.fetch.MiscStallCycles          154                       # Number of cycles fetch has spent waiting on interrupts, or bad addresses, or out of MSHRs
system.switch_cpus_10.fetch.SquashCycles      2886952                       # Number of cycles fetch has spent squashing
system.switch_cpus_10.fetch.branchRate       0.434584                       # Number of branch fetches per cycle
system.switch_cpus_10.fetch.icacheStallCycles     20464869                       # Number of cycles fetch is stalled on an Icache miss
system.switch_cpus_10.fetch.predictedBranches      8664062                       # Number of branches that fetch has predicted taken
system.switch_cpus_10.fetch.rate             1.490281                       # Number of inst fetches per cycle
system.switch_cpus_10.fetch.rateDist::samples     55996291                       # Number of instructions fetched each cycle (Total)
system.switch_cpus_10.fetch.rateDist::mean     3.386209                       # Number of instructions fetched each cycle (Total)
system.switch_cpus_10.fetch.rateDist::stdev     3.625197                       # Number of instructions fetched each cycle (Total)
system.switch_cpus_10.fetch.rateDist::underflows            0      0.00%      0.00% # Number of instructions fetched each cycle (Total)
system.switch_cpus_10.fetch.rateDist::0      25794100     46.06%     46.06% # Number of instructions fetched each cycle (Total)
system.switch_cpus_10.fetch.rateDist::1       2896153      5.17%     51.24% # Number of instructions fetched each cycle (Total)
system.switch_cpus_10.fetch.rateDist::2        808960      1.44%     52.68% # Number of instructions fetched each cycle (Total)
system.switch_cpus_10.fetch.rateDist::3       2246211      4.01%     56.69% # Number of instructions fetched each cycle (Total)
system.switch_cpus_10.fetch.rateDist::4       1922405      3.43%     60.13% # Number of instructions fetched each cycle (Total)
system.switch_cpus_10.fetch.rateDist::5       1464277      2.61%     62.74% # Number of instructions fetched each cycle (Total)
system.switch_cpus_10.fetch.rateDist::6       1196126      2.14%     64.88% # Number of instructions fetched each cycle (Total)
system.switch_cpus_10.fetch.rateDist::7       1169786      2.09%     66.97% # Number of instructions fetched each cycle (Total)
system.switch_cpus_10.fetch.rateDist::8      18498273     33.03%    100.00% # Number of instructions fetched each cycle (Total)
system.switch_cpus_10.fetch.rateDist::overflows            0      0.00%    100.00% # Number of instructions fetched each cycle (Total)
system.switch_cpus_10.fetch.rateDist::min_value            0                       # Number of instructions fetched each cycle (Total)
system.switch_cpus_10.fetch.rateDist::max_value            8                       # Number of instructions fetched each cycle (Total)
system.switch_cpus_10.fetch.rateDist::total     55996291                       # Number of instructions fetched each cycle (Total)
system.switch_cpus_10.fp_regfile_reads       18454966                       # number of floating regfile reads
system.switch_cpus_10.fp_regfile_writes      10129243                       # number of floating regfile writes
system.switch_cpus_10.idleCycles                20828                       # Total number of cycles that the CPU has spent unscheduled due to idling
system.switch_cpus_10.iew.branchMispredicts      1770033                       # Number of branch mispredicts detected at execute
system.switch_cpus_10.iew.exec_branches      16163313                       # Number of branches executed
system.switch_cpus_10.iew.exec_nop                  0                       # number of nop insts executed
system.switch_cpus_10.iew.exec_rate          2.501905                       # Inst execution rate
system.switch_cpus_10.iew.exec_refs          16821976                       # number of memory reference insts executed
system.switch_cpus_10.iew.exec_stores         3098411                       # Number of stores executed
system.switch_cpus_10.iew.exec_swp                  0                       # number of swp insts executed
system.switch_cpus_10.iew.iewBlockCycles      5943809                       # Number of cycles IEW is blocking
system.switch_cpus_10.iew.iewDispLoadInsts     15650145                       # Number of dispatched load instructions
system.switch_cpus_10.iew.iewDispNonSpecInsts           20                       # Number of dispatched non-speculative instructions
system.switch_cpus_10.iew.iewDispSquashedInsts       424512                       # Number of squashed instructions skipped by dispatch
system.switch_cpus_10.iew.iewDispStoreInsts      3582803                       # Number of dispatched store instructions
system.switch_cpus_10.iew.iewDispatchedInsts    161604234                       # Number of instructions dispatched to IQ
system.switch_cpus_10.iew.iewExecLoadInsts     13723565                       # Number of load instructions executed
system.switch_cpus_10.iew.iewExecSquashedInsts      2850979                       # Number of squashed instructions skipped in execute
system.switch_cpus_10.iew.iewExecutedInsts    140149499                       # Number of executed instructions
system.switch_cpus_10.iew.iewIQFullEvents         2012                       # Number of times the IQ has become full, causing a stall
system.switch_cpus_10.iew.iewIdleCycles             0                       # Number of cycles IEW is idle
system.switch_cpus_10.iew.iewLSQFullEvents        67610                       # Number of times the LSQ has become full, causing a stall
system.switch_cpus_10.iew.iewSquashCycles      1443476                       # Number of cycles IEW is squashing
system.switch_cpus_10.iew.iewUnblockCycles        69820                       # Number of cycles IEW is unblocking
system.switch_cpus_10.iew.lsq.thread0.blockedLoads            0                       # Number of blocked loads due to partial load-store forwarding
system.switch_cpus_10.iew.lsq.thread0.cacheBlocked          662                       # Number of times an access to memory failed due to the cache being blocked
system.switch_cpus_10.iew.lsq.thread0.forwLoads       229405                       # Number of loads that had data forwarded from stores
system.switch_cpus_10.iew.lsq.thread0.ignoredResponses         3605                       # Number of memory responses ignored because the instruction is squashed
system.switch_cpus_10.iew.lsq.thread0.invAddrLoads            0                       # Number of loads ignored due to an invalid address
system.switch_cpus_10.iew.lsq.thread0.invAddrSwpfs            0                       # Number of software prefetches ignored due to an invalid address
system.switch_cpus_10.iew.lsq.thread0.memOrderViolation          191                       # Number of memory ordering violations
system.switch_cpus_10.iew.lsq.thread0.rescheduledLoads          289                       # Number of loads that were rescheduled
system.switch_cpus_10.iew.lsq.thread0.squashedLoads      5325621                       # Number of loads squashed
system.switch_cpus_10.iew.lsq.thread0.squashedStores      1269721                       # Number of stores squashed
system.switch_cpus_10.iew.memOrderViolationEvents          191                       # Number of memory order violations
system.switch_cpus_10.iew.predictedNotTakenIncorrect      1438567                       # Number of branches that were predicted not taken incorrectly
system.switch_cpus_10.iew.predictedTakenIncorrect       331466                       # Number of branches that were predicted taken incorrectly
system.switch_cpus_10.iew.wb_consumers      186838918                       # num instructions consuming a value
system.switch_cpus_10.iew.wb_count          138417954                       # cumulative count of insts written-back
system.switch_cpus_10.iew.wb_fanout          0.556519                       # average fanout of values written-back
system.switch_cpus_10.iew.wb_producers      103979388                       # num instructions producing a value
system.switch_cpus_10.iew.wb_rate            2.470994                       # insts written-back per cycle
system.switch_cpus_10.iew.wb_sent           138770490                       # cumulative count of insts sent to commit
system.switch_cpus_10.int_regfile_reads     180231160                       # number of integer regfile reads
system.switch_cpus_10.int_regfile_writes    108474445                       # number of integer regfile writes
system.switch_cpus_10.ipc                    0.876825                       # IPC: Instructions Per Cycle
system.switch_cpus_10.ipc_total              0.876825                       # IPC: Total IPC of All Threads
system.switch_cpus_10.iq.FU_type_0::No_OpClass      2682839      1.88%      1.88% # Type of FU issued
system.switch_cpus_10.iq.FU_type_0::IntAlu    113338986     79.26%     81.13% # Type of FU issued
system.switch_cpus_10.iq.FU_type_0::IntMult       561273      0.39%     81.53% # Type of FU issued
system.switch_cpus_10.iq.FU_type_0::IntDiv        19125      0.01%     81.54% # Type of FU issued
system.switch_cpus_10.iq.FU_type_0::FloatAdd       557583      0.39%     81.93% # Type of FU issued
system.switch_cpus_10.iq.FU_type_0::FloatCmp            0      0.00%     81.93% # Type of FU issued
system.switch_cpus_10.iq.FU_type_0::FloatCvt            0      0.00%     81.93% # Type of FU issued
system.switch_cpus_10.iq.FU_type_0::FloatMult            0      0.00%     81.93% # Type of FU issued
system.switch_cpus_10.iq.FU_type_0::FloatMultAcc            0      0.00%     81.93% # Type of FU issued
system.switch_cpus_10.iq.FU_type_0::FloatDiv            0      0.00%     81.93% # Type of FU issued
system.switch_cpus_10.iq.FU_type_0::FloatMisc            0      0.00%     81.93% # Type of FU issued
system.switch_cpus_10.iq.FU_type_0::FloatSqrt            0      0.00%     81.93% # Type of FU issued
system.switch_cpus_10.iq.FU_type_0::SimdAdd       723272      0.51%     82.44% # Type of FU issued
system.switch_cpus_10.iq.FU_type_0::SimdAddAcc            0      0.00%     82.44% # Type of FU issued
system.switch_cpus_10.iq.FU_type_0::SimdAlu      3169305      2.22%     84.65% # Type of FU issued
system.switch_cpus_10.iq.FU_type_0::SimdCmp        11797      0.01%     84.66% # Type of FU issued
system.switch_cpus_10.iq.FU_type_0::SimdCvt      2381533      1.67%     86.33% # Type of FU issued
system.switch_cpus_10.iq.FU_type_0::SimdMisc      1420039      0.99%     87.32% # Type of FU issued
system.switch_cpus_10.iq.FU_type_0::SimdMult            0      0.00%     87.32% # Type of FU issued
system.switch_cpus_10.iq.FU_type_0::SimdMultAcc            0      0.00%     87.32% # Type of FU issued
system.switch_cpus_10.iq.FU_type_0::SimdShift       646156      0.45%     87.77% # Type of FU issued
system.switch_cpus_10.iq.FU_type_0::SimdShiftAcc            0      0.00%     87.77% # Type of FU issued
system.switch_cpus_10.iq.FU_type_0::SimdDiv            0      0.00%     87.77% # Type of FU issued
system.switch_cpus_10.iq.FU_type_0::SimdSqrt            0      0.00%     87.77% # Type of FU issued
system.switch_cpus_10.iq.FU_type_0::SimdFloatAdd            0      0.00%     87.77% # Type of FU issued
system.switch_cpus_10.iq.FU_type_0::SimdFloatAlu            0      0.00%     87.77% # Type of FU issued
system.switch_cpus_10.iq.FU_type_0::SimdFloatCmp            0      0.00%     87.77% # Type of FU issued
system.switch_cpus_10.iq.FU_type_0::SimdFloatCvt          132      0.00%     87.77% # Type of FU issued
system.switch_cpus_10.iq.FU_type_0::SimdFloatDiv            0      0.00%     87.77% # Type of FU issued
system.switch_cpus_10.iq.FU_type_0::SimdFloatMisc            0      0.00%     87.77% # Type of FU issued
system.switch_cpus_10.iq.FU_type_0::SimdFloatMult            0      0.00%     87.77% # Type of FU issued
system.switch_cpus_10.iq.FU_type_0::SimdFloatMultAcc            0      0.00%     87.77% # Type of FU issued
system.switch_cpus_10.iq.FU_type_0::SimdFloatSqrt            0      0.00%     87.77% # Type of FU issued
system.switch_cpus_10.iq.FU_type_0::SimdReduceAdd            0      0.00%     87.77% # Type of FU issued
system.switch_cpus_10.iq.FU_type_0::SimdReduceAlu            0      0.00%     87.77% # Type of FU issued
system.switch_cpus_10.iq.FU_type_0::SimdReduceCmp            0      0.00%     87.77% # Type of FU issued
system.switch_cpus_10.iq.FU_type_0::SimdFloatReduceAdd            0      0.00%     87.77% # Type of FU issued
system.switch_cpus_10.iq.FU_type_0::SimdFloatReduceCmp            0      0.00%     87.77% # Type of FU issued
system.switch_cpus_10.iq.FU_type_0::SimdAes            0      0.00%     87.77% # Type of FU issued
system.switch_cpus_10.iq.FU_type_0::SimdAesMix            0      0.00%     87.77% # Type of FU issued
system.switch_cpus_10.iq.FU_type_0::SimdSha1Hash            0      0.00%     87.77% # Type of FU issued
system.switch_cpus_10.iq.FU_type_0::SimdSha1Hash2            0      0.00%     87.77% # Type of FU issued
system.switch_cpus_10.iq.FU_type_0::SimdSha256Hash            0      0.00%     87.77% # Type of FU issued
system.switch_cpus_10.iq.FU_type_0::SimdSha256Hash2            0      0.00%     87.77% # Type of FU issued
system.switch_cpus_10.iq.FU_type_0::SimdShaSigma2            0      0.00%     87.77% # Type of FU issued
system.switch_cpus_10.iq.FU_type_0::SimdShaSigma3            0      0.00%     87.77% # Type of FU issued
system.switch_cpus_10.iq.FU_type_0::SimdPredAlu            0      0.00%     87.77% # Type of FU issued
system.switch_cpus_10.iq.FU_type_0::MemRead     10620435      7.43%     95.20% # Type of FU issued
system.switch_cpus_10.iq.FU_type_0::MemWrite      3122532      2.18%     97.38% # Type of FU issued
system.switch_cpus_10.iq.FU_type_0::FloatMemRead      3633125      2.54%     99.92% # Type of FU issued
system.switch_cpus_10.iq.FU_type_0::FloatMemWrite       112347      0.08%    100.00% # Type of FU issued
system.switch_cpus_10.iq.FU_type_0::IprAccess            0      0.00%    100.00% # Type of FU issued
system.switch_cpus_10.iq.FU_type_0::InstPrefetch            0      0.00%    100.00% # Type of FU issued
system.switch_cpus_10.iq.FU_type_0::total    143000479                       # Type of FU issued
system.switch_cpus_10.iq.fp_alu_accesses     13080623                       # Number of floating point alu accesses
system.switch_cpus_10.iq.fp_inst_queue_reads     25841669                       # Number of floating instruction queue reads
system.switch_cpus_10.iq.fp_inst_queue_wakeup_accesses     11470071                       # Number of floating instruction queue wakeup accesses
system.switch_cpus_10.iq.fp_inst_queue_writes     23129630                       # Number of floating instruction queue writes
system.switch_cpus_10.iq.fu_busy_cnt          2275777                       # FU busy when requested
system.switch_cpus_10.iq.fu_busy_rate        0.015914                       # FU busy rate (busy events/executed inst)
system.switch_cpus_10.iq.fu_full::No_OpClass            0      0.00%      0.00% # attempts to use FU when none available
system.switch_cpus_10.iq.fu_full::IntAlu      1857089     81.60%     81.60% # attempts to use FU when none available
system.switch_cpus_10.iq.fu_full::IntMult            0      0.00%     81.60% # attempts to use FU when none available
system.switch_cpus_10.iq.fu_full::IntDiv            0      0.00%     81.60% # attempts to use FU when none available
system.switch_cpus_10.iq.fu_full::FloatAdd            0      0.00%     81.60% # attempts to use FU when none available
system.switch_cpus_10.iq.fu_full::FloatCmp            0      0.00%     81.60% # attempts to use FU when none available
system.switch_cpus_10.iq.fu_full::FloatCvt            0      0.00%     81.60% # attempts to use FU when none available
system.switch_cpus_10.iq.fu_full::FloatMult            0      0.00%     81.60% # attempts to use FU when none available
system.switch_cpus_10.iq.fu_full::FloatMultAcc            0      0.00%     81.60% # attempts to use FU when none available
system.switch_cpus_10.iq.fu_full::FloatDiv            0      0.00%     81.60% # attempts to use FU when none available
system.switch_cpus_10.iq.fu_full::FloatMisc            0      0.00%     81.60% # attempts to use FU when none available
system.switch_cpus_10.iq.fu_full::FloatSqrt            0      0.00%     81.60% # attempts to use FU when none available
system.switch_cpus_10.iq.fu_full::SimdAdd           55      0.00%     81.60% # attempts to use FU when none available
system.switch_cpus_10.iq.fu_full::SimdAddAcc            0      0.00%     81.60% # attempts to use FU when none available
system.switch_cpus_10.iq.fu_full::SimdAlu       240672     10.58%     92.18% # attempts to use FU when none available
system.switch_cpus_10.iq.fu_full::SimdCmp           14      0.00%     92.18% # attempts to use FU when none available
system.switch_cpus_10.iq.fu_full::SimdCvt         2725      0.12%     92.30% # attempts to use FU when none available
system.switch_cpus_10.iq.fu_full::SimdMisc        47358      2.08%     94.38% # attempts to use FU when none available
system.switch_cpus_10.iq.fu_full::SimdMult            0      0.00%     94.38% # attempts to use FU when none available
system.switch_cpus_10.iq.fu_full::SimdMultAcc            0      0.00%     94.38% # attempts to use FU when none available
system.switch_cpus_10.iq.fu_full::SimdShift          335      0.01%     94.40% # attempts to use FU when none available
system.switch_cpus_10.iq.fu_full::SimdShiftAcc            0      0.00%     94.40% # attempts to use FU when none available
system.switch_cpus_10.iq.fu_full::SimdDiv            0      0.00%     94.40% # attempts to use FU when none available
system.switch_cpus_10.iq.fu_full::SimdSqrt            0      0.00%     94.40% # attempts to use FU when none available
system.switch_cpus_10.iq.fu_full::SimdFloatAdd            0      0.00%     94.40% # attempts to use FU when none available
system.switch_cpus_10.iq.fu_full::SimdFloatAlu            0      0.00%     94.40% # attempts to use FU when none available
system.switch_cpus_10.iq.fu_full::SimdFloatCmp            0      0.00%     94.40% # attempts to use FU when none available
system.switch_cpus_10.iq.fu_full::SimdFloatCvt            0      0.00%     94.40% # attempts to use FU when none available
system.switch_cpus_10.iq.fu_full::SimdFloatDiv            0      0.00%     94.40% # attempts to use FU when none available
system.switch_cpus_10.iq.fu_full::SimdFloatMisc            0      0.00%     94.40% # attempts to use FU when none available
system.switch_cpus_10.iq.fu_full::SimdFloatMult            0      0.00%     94.40% # attempts to use FU when none available
[...]
system.cpu1.l2cache.ReadSharedReq_mshr_misses::.switch_cpus_11.data        28882                       # number of ReadSharedReq MSHR misses
system.cpu1.l2cache.ReadSharedReq_mshr_misses::total        30010                       # number of ReadSharedReq MSHR misses
system.cpu1.l2cache.ReadSharedReq_mshr_miss_latency::.switch_cpus1.data     78542784                       # number of ReadSharedReq MSHR miss cycles
system.cpu1.l2cache.ReadSharedReq_mshr_miss_latency::.switch_cpus_11.data   2010517545                       # number of ReadSharedReq MSHR miss cycles
system.cpu1.l2cache.ReadSharedReq_mshr_miss_latency::total   2089060329                       # number of ReadSharedReq MSHR miss cycles
system.cpu1.l2cache.ReadSharedReq_mshr_miss_rate::.switch_cpus1.data     0.946309                       # mshr miss rate for ReadSharedReq accesses
system.cpu1.l2cache.ReadSharedReq_mshr_miss_rate::.switch_cpus_11.data     0.521750                       # mshr miss rate for ReadSharedReq accesses
system.cpu1.l2cache.ReadSharedReq_mshr_miss_rate::total     0.530700                       # mshr miss rate for ReadSharedReq accesses
system.cpu1.l2cache.ReadSharedReq_avg_mshr_miss_latency::.switch_cpus1.data 69630.127660                       # average ReadSharedReq mshr miss latency
system.cpu1.l2cache.ReadSharedReq_avg_mshr_miss_latency::.switch_cpus_11.data 69611.437747                       # average ReadSharedReq mshr miss latency
system.cpu1.l2cache.ReadSharedReq_avg_mshr_miss_latency::total 69612.140253                       # average ReadSharedReq mshr miss latency
system.cpu1.l2cache.tags.pwrStateResidencyTicks::UNDEFINED 1318800336912                       # Cumulative time (in ticks) in various power states
system.cpu1.l2cache.tags.tagsinuse          71.796296                       # Cycle average of tags in use
system.cpu1.l2cache.tags.total_refs            113116                       # Total number of references to valid blocks.
system.cpu1.l2cache.tags.sampled_refs           30322                       # Sample count of references to valid blocks.
system.cpu1.l2cache.tags.avg_refs            3.730493                       # Average number of references to valid blocks.
system.cpu1.l2cache.tags.warmup_cycle    1293351708033                       # Cycle when the warmup percentage was hit.
system.cpu1.l2cache.tags.occ_blocks::.cpu1.inst     0.003459                       # Average occupied blocks per requestor
system.cpu1.l2cache.tags.occ_blocks::.cpu1.data     0.019297                       # Average occupied blocks per requestor
system.cpu1.l2cache.tags.occ_blocks::.switch_cpus1.inst     0.643377                       # Average occupied blocks per requestor
system.cpu1.l2cache.tags.occ_blocks::.switch_cpus1.data     9.904086                       # Average occupied blocks per requestor
system.cpu1.l2cache.tags.occ_blocks::.switch_cpus_11.inst     0.178081                       # Average occupied blocks per requestor
system.cpu1.l2cache.tags.occ_blocks::.switch_cpus_11.data    61.047995                       # Average occupied blocks per requestor
system.cpu1.l2cache.tags.occ_percent::.cpu1.inst     0.000001                       # Average percentage of cache occupancy
system.cpu1.l2cache.tags.occ_percent::.cpu1.data     0.000005                       # Average percentage of cache occupancy
system.cpu1.l2cache.tags.occ_percent::.switch_cpus1.inst     0.000157                       # Average percentage of cache occupancy
system.cpu1.l2cache.tags.occ_percent::.switch_cpus1.data     0.002418                       # Average percentage of cache occupancy
system.cpu1.l2cache.tags.occ_percent::.switch_cpus_11.inst     0.000043                       # Average percentage of cache occupancy
system.cpu1.l2cache.tags.occ_percent::.switch_cpus_11.data     0.014904                       # Average percentage of cache occupancy
system.cpu1.l2cache.tags.occ_percent::total     0.017528                       # Average percentage of cache occupancy
system.cpu1.l2cache.tags.occ_task_id_blocks::1024         4096                       # Occupied blocks per task id
system.cpu1.l2cache.tags.age_task_id_blocks_1024::0            6                       # Occupied blocks per task id
system.cpu1.l2cache.tags.age_task_id_blocks_1024::1           64                       # Occupied blocks per task id
system.cpu1.l2cache.tags.age_task_id_blocks_1024::2         1135                       # Occupied blocks per task id
system.cpu1.l2cache.tags.age_task_id_blocks_1024::3         2383                       # Occupied blocks per task id
system.cpu1.l2cache.tags.age_task_id_blocks_1024::4          508                       # Occupied blocks per task id
system.cpu1.l2cache.tags.occ_task_id_percent::1024            1                       # Percentage of cache occupancy per task id
system.cpu1.l2cache.tags.tag_accesses         1840258                       # Number of tag accesses
system.cpu1.l2cache.tags.data_accesses        1840258                       # Number of data accesses
system.cpu1.toL2Bus.pwrStateResidencyTicks::UNDEFINED 1318800336912                       # Cumulative time (in ticks) in various power states
system.cpu1.toL2Bus.trans_dist::ReadResp        56835                       # Transaction distribution
system.cpu1.toL2Bus.trans_dist::WritebackDirty          185                       # Transaction distribution
system.cpu1.toL2Bus.trans_dist::CleanEvict        82458                       # Transaction distribution
system.cpu1.toL2Bus.trans_dist::ReadExReq          148                       # Transaction distribution
system.cpu1.toL2Bus.trans_dist::ReadExResp          148                       # Transaction distribution
system.cpu1.toL2Bus.trans_dist::ReadCleanReq          287                       # Transaction distribution
system.cpu1.toL2Bus.trans_dist::ReadSharedReq        56548                       # Transaction distribution
system.cpu1.toL2Bus.pkt_count_system.cpu1.icache.mem_side::system.cpu1.l2cache.cpu_side          574                       # Packet count per connected master and slave (bytes)
system.cpu1.toL2Bus.pkt_count_system.cpu1.dcache.mem_side::system.cpu1.l2cache.cpu_side       169576                       # Packet count per connected master and slave (bytes)
system.cpu1.toL2Bus.pkt_count::total           170150                       # Packet count per connected master and slave (bytes)
system.cpu1.toL2Bus.pkt_size_system.cpu1.icache.mem_side::system.cpu1.l2cache.cpu_side        18368                       # Cumulative packet size per connected master and slave (bytes)
system.cpu1.toL2Bus.pkt_size_system.cpu1.dcache.mem_side::system.cpu1.l2cache.cpu_side      3639872                       # Cumulative packet size per connected master and slave (bytes)
system.cpu1.toL2Bus.pkt_size::total           3658240                       # Cumulative packet size per connected master and slave (bytes)
system.cpu1.toL2Bus.snoops                      26459                       # Total snoops (count)
system.cpu1.toL2Bus.snoopTraffic                  512                       # Total snoop traffic (bytes)
system.cpu1.toL2Bus.snoop_fanout::samples        83442                       # Request fanout histogram
system.cpu1.toL2Bus.snoop_fanout::mean       0.006448                       # Request fanout histogram
system.cpu1.toL2Bus.snoop_fanout::stdev      0.080038                       # Request fanout histogram
system.cpu1.toL2Bus.snoop_fanout::underflows            0      0.00%      0.00% # Request fanout histogram
system.cpu1.toL2Bus.snoop_fanout::0             82904     99.36%     99.36% # Request fanout histogram
system.cpu1.toL2Bus.snoop_fanout::1               538      0.64%    100.00% # Request fanout histogram
system.cpu1.toL2Bus.snoop_fanout::2                 0      0.00%    100.00% # Request fanout histogram
system.cpu1.toL2Bus.snoop_fanout::3                 0      0.00%    100.00% # Request fanout histogram
system.cpu1.toL2Bus.snoop_fanout::4                 0      0.00%    100.00% # Request fanout histogram
system.cpu1.toL2Bus.snoop_fanout::overflows            0      0.00%    100.00% # Request fanout histogram
system.cpu1.toL2Bus.snoop_fanout::min_value            0                       # Request fanout histogram
system.cpu1.toL2Bus.snoop_fanout::max_value            1                       # Request fanout histogram
system.cpu1.toL2Bus.snoop_fanout::total         83442                       # Request fanout histogram
system.cpu1.toL2Bus.reqLayer0.occupancy      47337423                       # Layer occupancy (ticks)
system.cpu1.toL2Bus.reqLayer0.utilization          0.2                       # Layer utilization (%)
system.cpu1.toL2Bus.respLayer1.occupancy     70925445                       # Layer occupancy (ticks)
system.cpu1.toL2Bus.respLayer1.utilization          0.3                       # Layer utilization (%)
system.cpu1.toL2Bus.respLayer0.occupancy       357786                       # Layer occupancy (ticks)
system.cpu1.toL2Bus.respLayer0.utilization          0.0                       # Layer utilization (%)
system.switch_cpus_10.pwrStateResidencyTicks::OFF  25448629296                       # Cumulative time (in ticks) in various power states
system.switch_cpus_10.dtb.walker.pwrStateResidencyTicks::UNDEFINED 1318800336912                       # Cumulative time (in ticks) in various power states
system.switch_cpus_10.itb.walker.pwrStateResidencyTicks::UNDEFINED 1318800336912                       # Cumulative time (in ticks) in various power states
system.switch_cpus_11.pwrStateResidencyTicks::OFF  25448629296                       # Cumulative time (in ticks) in various power states
system.switch_cpus_11.dtb.walker.pwrStateResidencyTicks::UNDEFINED 1318800336912                       # Cumulative time (in ticks) in various power states
system.switch_cpus_11.itb.walker.pwrStateResidencyTicks::UNDEFINED 1318800336912                       # Cumulative time (in ticks) in various power states
system.cpu_voltage_domain.voltage                   1                       # Voltage in Volts
system.switch_cpus1.numPwrStateTransitions            1                       # Number of power state transitions
system.switch_cpus1.pwrStateResidencyTicks::UNDEFINED 1293351707616                       # Cumulative time (in ticks) in various power states
system.switch_cpus1.pwrStateResidencyTicks::OFF  25448629296                       # Cumulative time (in ticks) in various power states
system.switch_cpus1.dtb.walker.pwrStateResidencyTicks::UNDEFINED 1318800336912                       # Cumulative time (in ticks) in various power states
system.switch_cpus1.itb.walker.pwrStateResidencyTicks::UNDEFINED 1318800336912                       # Cumulative time (in ticks) in various power states
system.mem_ctrls.pwrStateResidencyTicks::UNDEFINED 1318800336912                       # Cumulative time (in ticks) in various power states
system.mem_ctrls.bytes_read::.cpu0.inst            64                       # Number of bytes read from this memory
system.mem_ctrls.bytes_read::.cpu1.inst            64                       # Number of bytes read from this memory
system.mem_ctrls.bytes_read::.cpu1.data            64                       # Number of bytes read from this memory
system.mem_ctrls.bytes_read::.switch_cpus0.inst        20864                       # Number of bytes read from this memory
system.mem_ctrls.bytes_read::.switch_cpus0.data        58944                       # Number of bytes read from this memory
system.mem_ctrls.bytes_read::.switch_cpus1.inst        12672                       # Number of bytes read from this memory
system.mem_ctrls.bytes_read::.switch_cpus1.data        73536                       # Number of bytes read from this memory
system.mem_ctrls.bytes_read::.switch_cpus_10.inst        24512                       # Number of bytes read from this memory
system.mem_ctrls.bytes_read::.switch_cpus_10.data       343552                       # Number of bytes read from this memory
system.mem_ctrls.bytes_read::.switch_cpus_11.inst         5632                       # Number of bytes read from this memory
system.mem_ctrls.bytes_read::.switch_cpus_11.data      1847168                       # Number of bytes read from this memory
system.mem_ctrls.bytes_read::total            2387072                       # Number of bytes read from this memory
system.mem_ctrls.bytes_inst_read::.cpu0.inst           64                       # Number of instructions bytes read from this memory
system.mem_ctrls.bytes_inst_read::.cpu1.inst           64                       # Number of instructions bytes read from this memory
system.mem_ctrls.bytes_inst_read::.switch_cpus0.inst        20864                       # Number of instructions bytes read from this memory
system.mem_ctrls.bytes_inst_read::.switch_cpus1.inst        12672                       # Number of instructions bytes read from this memory
system.mem_ctrls.bytes_inst_read::.switch_cpus_10.inst        24512                       # Number of instructions bytes read from this memory
system.mem_ctrls.bytes_inst_read::.switch_cpus_11.inst         5632                       # Number of instructions bytes read from this memory
system.mem_ctrls.bytes_inst_read::total         63808                       # Number of instructions bytes read from this memory
system.mem_ctrls.bytes_written::.switch_cpus1.data           64                       # Number of bytes written to this memory
system.mem_ctrls.bytes_written::total              64                       # Number of bytes written to this memory
system.mem_ctrls.num_reads::.cpu0.inst              1                       # Number of read requests responded to by this memory
system.mem_ctrls.num_reads::.cpu1.inst              1                       # Number of read requests responded to by this memory
system.mem_ctrls.num_reads::.cpu1.data              1                       # Number of read requests responded to by this memory
system.mem_ctrls.num_reads::.switch_cpus0.inst          326                       # Number of read requests responded to by this memory
system.mem_ctrls.num_reads::.switch_cpus0.data          921                       # Number of read requests responded to by this memory
system.mem_ctrls.num_reads::.switch_cpus1.inst          198                       # Number of read requests responded to by this memory
system.mem_ctrls.num_reads::.switch_cpus1.data         1149                       # Number of read requests responded to by this memory
system.mem_ctrls.num_reads::.switch_cpus_10.inst          383                       # Number of read requests responded to by this memory
system.mem_ctrls.num_reads::.switch_cpus_10.data         5368                       # Number of read requests responded to by this memory
system.mem_ctrls.num_reads::.switch_cpus_11.inst           88                       # Number of read requests responded to by this memory
system.mem_ctrls.num_reads::.switch_cpus_11.data        28862                       # Number of read requests responded to by this memory
system.mem_ctrls.num_reads::total               37298                       # Number of read requests responded to by this memory
system.mem_ctrls.num_writes::.switch_cpus1.data            1                       # Number of write requests responded to by this memory
system.mem_ctrls.num_writes::total                  1                       # Number of write requests responded to by this memory
system.mem_ctrls.bw_read::.cpu0.inst             2515                       # Total read bandwidth from this memory (bytes/s)
system.mem_ctrls.bw_read::.cpu1.inst             2515                       # Total read bandwidth from this memory (bytes/s)
system.mem_ctrls.bw_read::.cpu1.data             2515                       # Total read bandwidth from this memory (bytes/s)
system.mem_ctrls.bw_read::.switch_cpus0.inst       819848                       # Total read bandwidth from this memory (bytes/s)
system.mem_ctrls.bw_read::.switch_cpus0.data      2316195                       # Total read bandwidth from this memory (bytes/s)
system.mem_ctrls.bw_read::.switch_cpus1.inst       497944                       # Total read bandwidth from this memory (bytes/s)
system.mem_ctrls.bw_read::.switch_cpus1.data      2889586                       # Total read bandwidth from this memory (bytes/s)
system.mem_ctrls.bw_read::.switch_cpus_10.inst       963195                       # Total read bandwidth from this memory (bytes/s)
system.mem_ctrls.bw_read::.switch_cpus_10.data     13499823                       # Total read bandwidth from this memory (bytes/s)
system.mem_ctrls.bw_read::.switch_cpus_11.inst       221309                       # Total read bandwidth from this memory (bytes/s)
system.mem_ctrls.bw_read::.switch_cpus_11.data     72584184                       # Total read bandwidth from this memory (bytes/s)
system.mem_ctrls.bw_read::total              93799630                       # Total read bandwidth from this memory (bytes/s)
system.mem_ctrls.bw_inst_read::.cpu0.inst         2515                       # Instruction read bandwidth from this memory (bytes/s)
system.mem_ctrls.bw_inst_read::.cpu1.inst         2515                       # Instruction read bandwidth from this memory (bytes/s)
system.mem_ctrls.bw_inst_read::.switch_cpus0.inst       819848                       # Instruction read bandwidth from this memory (bytes/s)
system.mem_ctrls.bw_inst_read::.switch_cpus1.inst       497944                       # Instruction read bandwidth from this memory (bytes/s)
system.mem_ctrls.bw_inst_read::.switch_cpus_10.inst       963195                       # Instruction read bandwidth from this memory (bytes/s)
system.mem_ctrls.bw_inst_read::.switch_cpus_11.inst       221309                       # Instruction read bandwidth from this memory (bytes/s)
system.mem_ctrls.bw_inst_read::total          2507326                       # Instruction read bandwidth from this memory (bytes/s)
system.mem_ctrls.bw_write::.switch_cpus1.data         2515                       # Write bandwidth from this memory (bytes/s)
system.mem_ctrls.bw_write::total                 2515                       # Write bandwidth from this memory (bytes/s)
system.mem_ctrls.bw_total::.cpu0.inst            2515                       # Total bandwidth to/from this memory (bytes/s)
system.mem_ctrls.bw_total::.cpu1.inst            2515                       # Total bandwidth to/from this memory (bytes/s)
system.mem_ctrls.bw_total::.cpu1.data            2515                       # Total bandwidth to/from this memory (bytes/s)
system.mem_ctrls.bw_total::.switch_cpus0.inst       819848                       # Total bandwidth to/from this memory (bytes/s)
system.mem_ctrls.bw_total::.switch_cpus0.data      2316195                       # Total bandwidth to/from this memory (bytes/s)
system.mem_ctrls.bw_total::.switch_cpus1.inst       497944                       # Total bandwidth to/from this memory (bytes/s)
system.mem_ctrls.bw_total::.switch_cpus1.data      2892101                       # Total bandwidth to/from this memory (bytes/s)
system.mem_ctrls.bw_total::.switch_cpus_10.inst       963195                       # Total bandwidth to/from this memory (bytes/s)
system.mem_ctrls.bw_total::.switch_cpus_10.data     13499823                       # Total bandwidth to/from this memory (bytes/s)
system.mem_ctrls.bw_total::.switch_cpus_11.inst       221309                       # Total bandwidth to/from this memory (bytes/s)
system.mem_ctrls.bw_total::.switch_cpus_11.data     72584184                       # Total bandwidth to/from this memory (bytes/s)
system.mem_ctrls.bw_total::total             93802144                       # Total bandwidth to/from this memory (bytes/s)
system.cpu_clk_domain.clock                       417                       # Clock period in ticks

---------- End Simulation Statistics   ----------
