
---------- Begin Simulation Statistics ----------
final_tick                               1312326687549                       # Number of ticks from beginning of simulation (restored from checkpoints and never reset)
host_inst_rate                                 158150                       # Simulator instruction rate (inst/s)
host_mem_usage                                4532708                       # Number of bytes of host memory used
host_op_rate                                   298962                       # Simulator op (including micro ops) rate (op/s)
host_seconds                                   530.84                       # Real time elapsed on the host
host_tick_rate                               35744897                       # Simulator tick rate (ticks/s)
sim_freq                                 1000000000000                       # Frequency of simulated ticks
sim_insts                                    83952949                       # Number of instructions simulated
sim_ops                                     158702096                       # Number of ops (including micro ops) simulated
sim_seconds                                  0.018975                       # Number of seconds simulated
sim_ticks                                 18974979933                       # Number of ticks simulated
system.cpu0.committedInsts                          2                       # Number of instructions committed
system.cpu0.committedOps                            3                       # Number of ops (including micro ops) committed
system.cpu0.dtb.rdAccesses                          1                       # TLB accesses on read requests
system.cpu0.dtb.rdMisses                            0                       # TLB misses on read requests
system.cpu0.dtb.wrAccesses                          0                       # TLB accesses on write requests
system.cpu0.dtb.wrMisses                            0                       # TLB misses on write requests
system.cpu0.idle_fraction                           0                       # Percentage of idle cycles
system.cpu0.itb.rdAccesses                          0                       # TLB accesses on read requests
system.cpu0.itb.rdMisses                            0                       # TLB misses on read requests
system.cpu0.itb.wrAccesses                          3                       # TLB accesses on write requests
system.cpu0.itb.wrMisses                            0                       # TLB misses on write requests
system.cpu0.not_idle_fraction                       1                       # Percentage of non-idle cycles
system.cpu0.numCycles                               4                       # number of cpu cycles simulated
system.cpu0.numWorkItemsCompleted                   0                       # number of work items this cpu completed
system.cpu0.numWorkItemsStarted                     0                       # number of work items this cpu started
system.cpu0.num_busy_cycles                         4                       # Number of busy cycles
system.cpu0.num_cc_register_reads                   1                       # number of times the CC registers were read
system.cpu0.num_cc_register_writes                  2                       # number of times the CC registers were written
system.cpu0.num_conditional_control_insts            0                       # number of instructions that are conditional controls
system.cpu0.num_fp_alu_accesses                     0                       # Number of float alu accesses
system.cpu0.num_fp_insts                            0                       # number of float instructions
system.cpu0.num_fp_register_reads                   0                       # number of times the floating registers were read
system.cpu0.num_fp_register_writes                  0                       # number of times the floating registers were written
system.cpu0.num_func_calls                          0                       # number of times a function call or return occured
system.cpu0.num_idle_cycles                         0                       # Number of idle cycles
system.cpu0.num_int_alu_accesses                    3                       # Number of integer alu accesses
system.cpu0.num_int_insts                           3                       # number of integer instructions
system.cpu0.num_int_register_reads                  8                       # number of times the integer registers were read
system.cpu0.num_int_register_writes                 3                       # number of times the integer registers were written
system.cpu0.num_load_insts                          1                       # Number of load instructions
system.cpu0.num_mem_refs                            1                       # number of memory refs
system.cpu0.num_store_insts                         0                       # Number of store instructions
system.cpu0.num_vec_alu_accesses                    0                       # Number of vector alu accesses
system.cpu0.num_vec_insts                           0                       # number of vector instructions
system.cpu0.num_vec_register_reads                  0                       # number of times the vector registers were read
system.cpu0.num_vec_register_writes                 0                       # number of times the vector registers were written
system.cpu0.op_class::No_OpClass                    0      0.00%      0.00% # Class of executed instruction
system.cpu0.op_class::IntAlu                        2     66.67%     66.67% # Class of executed instruction
system.cpu0.op_class::IntMult                       0      0.00%     66.67% # Class of executed instruction
system.cpu0.op_class::IntDiv                        0      0.00%     66.67% # Class of executed instruction
system.cpu0.op_class::FloatAdd                      0      0.00%     66.67% # Class of executed instruction
system.cpu0.op_class::FloatCmp                      0      0.00%     66.67% # Class of executed instruction
system.cpu0.op_class::FloatCvt                      0      0.00%     66.67% # Class of executed instruction
system.cpu0.op_class::FloatMult                     0      0.00%     66.67% # Class of executed instruction
system.cpu0.op_class::FloatMultAcc                  0      0.00%     66.67% # Class of executed instruction
system.cpu0.op_class::FloatDiv                      0      0.00%     66.67% # Class of executed instruction
system.cpu0.op_class::FloatMisc                     0      0.00%     66.67% # Class of executed instruction
system.cpu0.op_class::FloatSqrt                     0      0.00%     66.67% # Class of executed instruction
system.cpu0.op_class::SimdAdd                       0      0.00%     66.67% # Class of executed instruction
system.cpu0.op_class::SimdAddAcc                    0      0.00%     66.67% # Class of executed instruction
system.cpu0.op_class::SimdAlu                       0      0.00%     66.67% # Class of executed instruction
system.cpu0.op_class::SimdCmp                       0      0.00%     66.67% # Class of executed instruction
system.cpu0.op_class::SimdCvt                       0      0.00%     66.67% # Class of executed instruction
system.cpu0.op_class::SimdMisc                      0      0.00%     66.67% # Class of executed instruction
system.cpu0.op_class::SimdMult                      0      0.00%     66.67% # Class of executed instruction
system.cpu0.op_class::SimdMultAcc                   0      0.00%     66.67% # Class of executed instruction
system.cpu0.op_class::SimdShift                     0      0.00%     66.67% # Class of executed instruction
system.cpu0.op_class::SimdShiftAcc                  0      0.00%     66.67% # Class of executed instruction
system.cpu0.op_class::SimdDiv                       0      0.00%     66.67% # Class of executed instruction
system.cpu0.op_class::SimdSqrt                      0      0.00%     66.67% # Class of executed instruction
system.cpu0.op_class::SimdFloatAdd                  0      0.00%     66.67% # Class of executed instruction
system.cpu0.op_class::SimdFloatAlu                  0      0.00%     66.67% # Class of executed instruction
system.cpu0.op_class::SimdFloatCmp                  0      0.00%     66.67% # Class of executed instruction
system.cpu0.op_class::SimdFloatCvt                  0      0.00%     66.67% # Class of executed instruction
system.cpu0.op_class::SimdFloatDiv                  0      0.00%     66.67% # Class of executed instruction
system.cpu0.op_class::SimdFloatMisc                 0      0.00%     66.67% # Class of executed instruction
system.cpu0.op_class::SimdFloatMult                 0      0.00%     66.67% # Class of executed instruction
system.cpu0.op_class::SimdFloatMultAcc              0      0.00%     66.67% # Class of executed instruction
system.cpu0.op_class::SimdFloatSqrt                 0      0.00%     66.67% # Class of executed instruction
system.cpu0.op_class::SimdReduceAdd                 0      0.00%     66.67% # Class of executed instruction
system.cpu0.op_class::SimdReduceAlu                 0      0.00%     66.67% # Class of executed instruction
system.cpu0.op_class::SimdReduceCmp                 0      0.00%     66.67% # Class of executed instruction
system.cpu0.op_class::SimdFloatReduceAdd            0      0.00%     66.67% # Class of executed instruction
system.cpu0.op_class::SimdFloatReduceCmp            0      0.00%     66.67% # Class of executed instruction
system.cpu0.op_class::SimdAes                       0      0.00%     66.67% # Class of executed instruction
system.cpu0.op_class::SimdAesMix                    0      0.00%     66.67% # Class of executed instruction
system.cpu0.op_class::SimdSha1Hash                  0      0.00%     66.67% # Class of executed instruction
system.cpu0.op_class::SimdSha1Hash2                 0      0.00%     66.67% # Class of executed instruction
system.cpu0.op_class::SimdSha256Hash                0      0.00%     66.67% # Class of executed instruction
system.cpu0.op_class::SimdSha256Hash2               0      0.00%     66.67% # Class of executed instruction
system.cpu0.op_class::SimdShaSigma2                 0      0.00%     66.67% # Class of executed instruction
system.cpu0.op_class::SimdShaSigma3                 0      0.00%     66.67% # Class of executed instruction
system.cpu0.op_class::SimdPredAlu                   0      0.00%     66.67% # Class of executed instruction
system.cpu0.op_class::MemRead                       1     33.33%    100.00% # Class of executed instruction
system.cpu0.op_class::MemWrite                      0      0.00%    100.00% # Class of executed instruction
system.cpu0.op_class::FloatMemRead                  0      0.00%    100.00% # Class of executed instruction
system.cpu0.op_class::FloatMemWrite                 0      0.00%    100.00% # Class of executed instruction
system.cpu0.op_class::IprAccess                     0      0.00%    100.00% # Class of executed instruction
system.cpu0.op_class::InstPrefetch                  0      0.00%    100.00% # Class of executed instruction
system.cpu0.op_class::total                         3                       # Class of executed instruction
system.cpu0.toL2Bus.snoop_filter.hit_multi_requests         5889                       # Number of requests hitting in the snoop filter with multiple (>1) holders of the requested data.
system.cpu0.toL2Bus.snoop_filter.hit_multi_snoops            0                       # Number of snoops hitting in the snoop filter with multiple (>1) holders of the requested data.
system.cpu0.toL2Bus.snoop_filter.hit_single_requests       447218                       # Number of requests hitting in the snoop filter with a single holder of the requested data.
system.cpu0.toL2Bus.snoop_filter.hit_single_snoops            0                       # Number of snoops hitting in the snoop filter with a single holder of the requested data.
system.cpu0.toL2Bus.snoop_filter.tot_requests       895484                       # Total number of requests made to the snoop filter.
system.cpu0.toL2Bus.snoop_filter.tot_snoops            0                       # Total number of snoops made to the snoop filter.
system.cpu0.toL3Bus.snoop_filter.hit_multi_requests            0                       # Number of requests hitting in the snoop filter with multiple (>1) holders of the requested data.
system.cpu0.toL3Bus.snoop_filter.hit_multi_snoops            0                       # Number of snoops hitting in the snoop filter with multiple (>1) holders of the requested data.
system.cpu0.toL3Bus.snoop_filter.hit_single_requests            0                       # Number of requests hitting in the snoop filter with a single holder of the requested data.
system.cpu0.toL3Bus.snoop_filter.hit_single_snoops            0                       # Number of snoops hitting in the snoop filter with a single holder of the requested data.
system.cpu0.toL3Bus.snoop_filter.tot_requests         1215                       # Total number of requests made to the snoop filter.
system.cpu0.toL3Bus.snoop_filter.tot_snoops            0                       # Total number of snoops made to the snoop filter.
system.cpu0.workload.numSyscalls                    0                       # Number of system calls
system.cpu1.Branches                                1                       # Number of branches fetched
system.cpu1.committedInsts                          1                       # Number of instructions committed
system.cpu1.committedOps                            5                       # Number of ops (including micro ops) committed
system.cpu1.dtb.rdAccesses                          0                       # TLB accesses on read requests
system.cpu1.dtb.rdMisses                            0                       # TLB misses on read requests
system.cpu1.dtb.wrAccesses                          1                       # TLB accesses on write requests
system.cpu1.dtb.wrMisses                            0                       # TLB misses on write requests
system.cpu1.idle_fraction                           0                       # Percentage of idle cycles
system.cpu1.itb.rdAccesses                          0                       # TLB accesses on read requests
system.cpu1.itb.rdMisses                            0                       # TLB misses on read requests
system.cpu1.itb.wrAccesses                          2                       # TLB accesses on write requests
system.cpu1.itb.wrMisses                            0                       # TLB misses on write requests
system.cpu1.not_idle_fraction                       1                       # Percentage of non-idle cycles
system.cpu1.numCycles                               6                       # number of cpu cycles simulated
system.cpu1.numWorkItemsCompleted                   0                       # number of work items this cpu completed
system.cpu1.numWorkItemsStarted                     0                       # number of work items this cpu started
system.cpu1.num_busy_cycles                         6                       # Number of busy cycles
system.cpu1.num_conditional_control_insts            0                       # number of instructions that are conditional controls
system.cpu1.num_fp_alu_accesses                     0                       # Number of float alu accesses
system.cpu1.num_fp_insts                            0                       # number of float instructions
system.cpu1.num_fp_register_reads                   0                       # number of times the floating registers were read
system.cpu1.num_fp_register_writes                  0                       # number of times the floating registers were written
system.cpu1.num_func_calls                          1                       # number of times a function call or return occured
system.cpu1.num_idle_cycles                         0                       # Number of idle cycles
system.cpu1.num_int_alu_accesses                    5                       # Number of integer alu accesses
system.cpu1.num_int_insts                           5                       # number of integer instructions
system.cpu1.num_int_register_reads                  9                       # number of times the integer registers were read
system.cpu1.num_int_register_writes                 3                       # number of times the integer registers were written
system.cpu1.num_load_insts                          0                       # Number of load instructions
system.cpu1.num_mem_refs                            1                       # number of memory refs
system.cpu1.num_store_insts                         1                       # Number of store instructions
system.cpu1.num_vec_alu_accesses                    0                       # Number of vector alu accesses
system.cpu1.num_vec_insts                           0                       # number of vector instructions
system.cpu1.num_vec_register_reads                  0                       # number of times the vector registers were read
system.cpu1.num_vec_register_writes                 0                       # number of times the vector registers were written
system.cpu1.op_class::No_OpClass                    0      0.00%      0.00% # Class of executed instruction
system.cpu1.op_class::IntAlu                        4     80.00%     80.00% # Class of executed instruction
system.cpu1.op_class::IntMult                       0      0.00%     80.00% # Class of executed instruction
system.cpu1.op_class::IntDiv                        0      0.00%     80.00% # Class of executed instruction
system.cpu1.op_class::FloatAdd                      0      0.00%     80.00% # Class of executed instruction
system.cpu1.op_class::FloatCmp                      0      0.00%     80.00% # Class of executed instruction
system.cpu1.op_class::FloatCvt                      0      0.00%     80.00% # Class of executed instruction
system.cpu1.op_class::FloatMult                     0      0.00%     80.00% # Class of executed instruction
system.cpu1.op_class::FloatMultAcc                  0      0.00%     80.00% # Class of executed instruction
system.cpu1.op_class::FloatDiv                      0      0.00%     80.00% # Class of executed instruction
system.cpu1.op_class::FloatMisc                     0      0.00%     80.00% # Class of executed instruction
system.cpu1.op_class::FloatSqrt                     0      0.00%     80.00% # Class of executed instruction
system.cpu1.op_class::SimdAdd                       0      0.00%     80.00% # Class of executed instruction
system.cpu1.op_class::SimdAddAcc                    0      0.00%     80.00% # Class of executed instruction
system.cpu1.op_class::SimdAlu                       0      0.00%     80.00% # Class of executed instruction
system.cpu1.op_class::SimdCmp                       0      0.00%     80.00% # Class of executed instruction
system.cpu1.op_class::SimdCvt                       0      0.00%     80.00% # Class of executed instruction
system.cpu1.op_class::SimdMisc                      0      0.00%     80.00% # Class of executed instruction
system.cpu1.op_class::SimdMult                      0      0.00%     80.00% # Class of executed instruction
system.cpu1.op_class::SimdMultAcc                   0      0.00%     80.00% # Class of executed instruction
system.cpu1.op_class::SimdShift                     0      0.00%     80.00% # Class of executed instruction
system.cpu1.op_class::SimdShiftAcc                  0      0.00%     80.00% # Class of executed instruction
system.cpu1.op_class::SimdDiv                       0      0.00%     80.00% # Class of executed instruction
system.cpu1.op_class::SimdSqrt                      0      0.00%     80.00% # Class of executed instruction
system.cpu1.op_class::SimdFloatAdd                  0      0.00%     80.00% # Class of executed instruction
system.cpu1.op_class::SimdFloatAlu                  0      0.00%     80.00% # Class of executed instruction
system.cpu1.op_class::SimdFloatCmp                  0      0.00%     80.00% # Class of executed instruction
system.cpu1.op_class::SimdFloatCvt                  0      0.00%     80.00% # Class of executed instruction
system.cpu1.op_class::SimdFloatDiv                  0      0.00%     80.00% # Class of executed instruction
system.cpu1.op_class::SimdFloatMisc                 0      0.00%     80.00% # Class of executed instruction
system.cpu1.op_class::SimdFloatMult                 0      0.00%     80.00% # Class of executed instruction
system.cpu1.op_class::SimdFloatMultAcc              0      0.00%     80.00% # Class of executed instruction
system.cpu1.op_class::SimdFloatSqrt                 0      0.00%     80.00% # Class of executed instruction
system.cpu1.op_class::SimdReduceAdd                 0      0.00%     80.00% # Class of executed instruction
system.cpu1.op_class::SimdReduceAlu                 0      0.00%     80.00% # Class of executed instruction
system.cpu1.op_class::SimdReduceCmp                 0      0.00%     80.00% # Class of executed instruction
system.cpu1.op_class::SimdFloatReduceAdd            0      0.00%     80.00% # Class of executed instruction
system.cpu1.op_class::SimdFloatReduceCmp            0      0.00%     80.00% # Class of executed instruction
system.cpu1.op_class::SimdAes                       0      0.00%     80.00% # Class of executed instruction
system.cpu1.op_class::SimdAesMix                    0      0.00%     80.00% # Class of executed instruction
system.cpu1.op_class::SimdSha1Hash                  0      0.00%     80.00% # Class of executed instruction
system.cpu1.op_class::SimdSha1Hash2                 0      0.00%     80.00% # Class of executed instruction
system.cpu1.op_class::SimdSha256Hash                0      0.00%     80.00% # Class of executed instruction
system.cpu1.op_class::SimdSha256Hash2               0      0.00%     80.00% # Class of executed instruction
system.cpu1.op_class::SimdShaSigma2                 0      0.00%     80.00% # Class of executed instruction
system.cpu1.op_class::SimdShaSigma3                 0      0.00%     80.00% # Class of executed instruction
system.cpu1.op_class::SimdPredAlu                   0      0.00%     80.00% # Class of executed instruction
system.cpu1.op_class::MemRead                       0      0.00%     80.00% # Class of executed instruction
system.cpu1.op_class::MemWrite                      1     20.00%    100.00% # Class of executed instruction
system.cpu1.op_class::FloatMemRead                  0      0.00%    100.00% # Class of executed instruction
system.cpu1.op_class::FloatMemWrite                 0      0.00%    100.00% # Class of executed instruction
system.cpu1.op_class::IprAccess                     0      0.00%    100.00% # Class of executed instruction
system.cpu1.op_class::InstPrefetch                  0      0.00%    100.00% # Class of executed instruction
system.cpu1.op_class::total                         5                       # Class of executed instruction
system.cpu1.toL2Bus.snoop_filter.hit_multi_requests           27                       # Number of requests hitting in the snoop filter with multiple (>1) holders of the requested data.
system.cpu1.toL2Bus.snoop_filter.hit_multi_snoops            0                       # Number of snoops hitting in the snoop filter with multiple (>1) holders of the requested data.
system.cpu1.toL2Bus.snoop_filter.hit_single_requests        36532                       # Number of requests hitting in the snoop filter with a single holder of the requested data.
system.cpu1.toL2Bus.snoop_filter.hit_single_snoops          327                       # Number of snoops hitting in the snoop filter with a single holder of the requested data.
system.cpu1.toL2Bus.snoop_filter.tot_requests        73862                       # Total number of requests made to the snoop filter.
system.cpu1.toL2Bus.snoop_filter.tot_snoops          327                       # Total number of snoops made to the snoop filter.
system.cpu1.toL3Bus.snoop_filter.hit_multi_requests            0                       # Number of requests hitting in the snoop filter with multiple (>1) holders of the requested data.
system.cpu1.toL3Bus.snoop_filter.hit_multi_snoops            0                       # Number of snoops hitting in the snoop filter with multiple (>1) holders of the requested data.
system.cpu1.toL3Bus.snoop_filter.hit_single_requests        15873                       # Number of requests hitting in the snoop filter with a single holder of the requested data.
system.cpu1.toL3Bus.snoop_filter.hit_single_snoops            0                       # Number of snoops hitting in the snoop filter with a single holder of the requested data.
system.cpu1.toL3Bus.snoop_filter.tot_requests        36163                       # Total number of requests made to the snoop filter.
system.cpu1.toL3Bus.snoop_filter.tot_snoops            0                       # Total number of snoops made to the snoop filter.
system.cpu1.workload.numSyscalls                10935                       # Number of system calls
system.membus.snoop_filter.hit_multi_requests            0                       # Number of requests hitting in the snoop filter with multiple (>1) holders of the requested data.
system.membus.snoop_filter.hit_multi_snoops            0                       # Number of snoops hitting in the snoop filter with multiple (>1) holders of the requested data.
system.membus.snoop_filter.hit_single_requests            0                       # Number of requests hitting in the snoop filter with a single holder of the requested data.
system.membus.snoop_filter.hit_single_snoops            0                       # Number of snoops hitting in the snoop filter with a single holder of the requested data.
system.membus.snoop_filter.tot_requests         21497                       # Total number of requests made to the snoop filter.
system.membus.snoop_filter.tot_snoops               0                       # Total number of snoops made to the snoop filter.
system.switch_cpus0.Branches                   175117                       # Number of branches fetched
system.switch_cpus0.committedInsts             988177                       # Number of instructions committed
system.switch_cpus0.committedOps              1781529                       # Number of ops (including micro ops) committed
system.switch_cpus0.dtb.rdAccesses             363376                       # TLB accesses on read requests
system.switch_cpus0.dtb.rdMisses                 1801                       # TLB misses on read requests
system.switch_cpus0.dtb.wrAccesses             162448                       # TLB accesses on write requests
system.switch_cpus0.dtb.wrMisses                  343                       # TLB misses on write requests
system.switch_cpus0.idle_fraction            0.000000                       # Percentage of idle cycles
system.switch_cpus0.itb.rdAccesses                  0                       # TLB accesses on read requests
system.switch_cpus0.itb.rdMisses                    0                       # TLB misses on read requests
system.switch_cpus0.itb.wrAccesses            1330583                       # TLB accesses on write requests
system.switch_cpus0.itb.wrMisses                   37                       # TLB misses on write requests
system.switch_cpus0.not_idle_fraction        1.000000                       # Percentage of non-idle cycles
system.switch_cpus0.numCycles                 5842644                       # number of cpu cycles simulated
system.switch_cpus0.numWorkItemsCompleted            0                       # number of work items this cpu completed
system.switch_cpus0.numWorkItemsStarted             0                       # number of work items this cpu started
system.switch_cpus0.num_busy_cycles      5842643.229602                       # Number of busy cycles
system.switch_cpus0.num_cc_register_reads       790759                       # number of times the CC registers were read
system.switch_cpus0.num_cc_register_writes       379726                       # number of times the CC registers were written
system.switch_cpus0.num_conditional_control_insts       109527                       # number of instructions that are conditional controls
system.switch_cpus0.num_fp_alu_accesses        366445                       # Number of float alu accesses
system.switch_cpus0.num_fp_insts               366445                       # number of float instructions
system.switch_cpus0.num_fp_register_reads       554840                       # number of times the floating registers were read
system.switch_cpus0.num_fp_register_writes       315364                       # number of times the floating registers were written
system.switch_cpus0.num_func_calls              54808                       # number of times a function call or return occured
system.switch_cpus0.num_idle_cycles          0.770398                       # Number of idle cycles
system.switch_cpus0.num_int_alu_accesses      1571488                       # Number of integer alu accesses
system.switch_cpus0.num_int_insts             1571488                       # number of integer instructions
system.switch_cpus0.num_int_register_reads      3365602                       # number of times the integer registers were read
system.switch_cpus0.num_int_register_writes      1103752                       # number of times the integer registers were written
system.switch_cpus0.num_load_insts             363087                       # Number of load instructions
system.switch_cpus0.num_mem_refs               525535                       # number of memory refs
system.switch_cpus0.num_store_insts            162448                       # Number of store instructions
system.switch_cpus0.num_vec_alu_accesses            0                       # Number of vector alu accesses
system.switch_cpus0.num_vec_insts                   0                       # number of vector instructions
system.switch_cpus0.num_vec_register_reads            0                       # number of times the vector registers were read
system.switch_cpus0.num_vec_register_writes            0                       # number of times the vector registers were written
system.switch_cpus0.op_class::No_OpClass         9395      0.53%      0.53% # Class of executed instruction
system.switch_cpus0.op_class::IntAlu          1064985     59.78%     60.31% # Class of executed instruction
system.switch_cpus0.op_class::IntMult            4188      0.24%     60.54% # Class of executed instruction
system.switch_cpus0.op_class::IntDiv                0      0.00%     60.54% # Class of executed instruction
system.switch_cpus0.op_class::FloatAdd           3712      0.21%     60.75% # Class of executed instruction
system.switch_cpus0.op_class::FloatCmp              0      0.00%     60.75% # Class of executed instruction
system.switch_cpus0.op_class::FloatCvt              0      0.00%     60.75% # Class of executed instruction
system.switch_cpus0.op_class::FloatMult             0      0.00%     60.75% # Class of executed instruction
system.switch_cpus0.op_class::FloatMultAcc            0      0.00%     60.75% # Class of executed instruction
system.switch_cpus0.op_class::FloatDiv              0      0.00%     60.75% # Class of executed instruction
system.switch_cpus0.op_class::FloatMisc             0      0.00%     60.75% # Class of executed instruction
system.switch_cpus0.op_class::FloatSqrt             0      0.00%     60.75% # Class of executed instruction
system.switch_cpus0.op_class::SimdAdd               0      0.00%     60.75% # Class of executed instruction
system.switch_cpus0.op_class::SimdAddAcc            0      0.00%     60.75% # Class of executed instruction
system.switch_cpus0.op_class::SimdAlu           10994      0.62%     61.37% # Class of executed instruction
system.switch_cpus0.op_class::SimdCmp               0      0.00%     61.37% # Class of executed instruction
system.switch_cpus0.op_class::SimdCvt               0      0.00%     61.37% # Class of executed instruction
system.switch_cpus0.op_class::SimdMisc            292      0.02%     61.38% # Class of executed instruction
system.switch_cpus0.op_class::SimdMult              0      0.00%     61.38% # Class of executed instruction
system.switch_cpus0.op_class::SimdMultAcc            0      0.00%     61.38% # Class of executed instruction
system.switch_cpus0.op_class::SimdShift             0      0.00%     61.38% # Class of executed instruction
system.switch_cpus0.op_class::SimdShiftAcc            0      0.00%     61.38% # Class of executed instruction
system.switch_cpus0.op_class::SimdDiv               0      0.00%     61.38% # Class of executed instruction
system.switch_cpus0.op_class::SimdSqrt              0      0.00%     61.38% # Class of executed instruction
system.switch_cpus0.op_class::SimdFloatAdd        66110      3.71%     65.09% # Class of executed instruction
system.switch_cpus0.op_class::SimdFloatAlu            0      0.00%     65.09% # Class of executed instruction
system.switch_cpus0.op_class::SimdFloatCmp          224      0.01%     65.11% # Class of executed instruction
system.switch_cpus0.op_class::SimdFloatCvt        28362      1.59%     66.70% # Class of executed instruction
system.switch_cpus0.op_class::SimdFloatDiv         2455      0.14%     66.84% # Class of executed instruction
system.switch_cpus0.op_class::SimdFloatMisc            0      0.00%     66.84% # Class of executed instruction
system.switch_cpus0.op_class::SimdFloatMult        65019      3.65%     70.49% # Class of executed instruction
system.switch_cpus0.op_class::SimdFloatMultAcc            0      0.00%     70.49% # Class of executed instruction
system.switch_cpus0.op_class::SimdFloatSqrt          258      0.01%     70.50% # Class of executed instruction
system.switch_cpus0.op_class::SimdReduceAdd            0      0.00%     70.50% # Class of executed instruction
system.switch_cpus0.op_class::SimdReduceAlu            0      0.00%     70.50% # Class of executed instruction
system.switch_cpus0.op_class::SimdReduceCmp            0      0.00%     70.50% # Class of executed instruction
system.switch_cpus0.op_class::SimdFloatReduceAdd            0      0.00%     70.50% # Class of executed instruction
system.switch_cpus0.op_class::SimdFloatReduceCmp            0      0.00%     70.50% # Class of executed instruction
system.switch_cpus0.op_class::SimdAes               0      0.00%     70.50% # Class of executed instruction
system.switch_cpus0.op_class::SimdAesMix            0      0.00%     70.50% # Class of executed instruction
system.switch_cpus0.op_class::SimdSha1Hash            0      0.00%     70.50% # Class of executed instruction
system.switch_cpus0.op_class::SimdSha1Hash2            0      0.00%     70.50% # Class of executed instruction
system.switch_cpus0.op_class::SimdSha256Hash            0      0.00%     70.50% # Class of executed instruction
system.switch_cpus0.op_class::SimdSha256Hash2            0      0.00%     70.50% # Class of executed instruction
system.switch_cpus0.op_class::SimdShaSigma2            0      0.00%     70.50% # Class of executed instruction
system.switch_cpus0.op_class::SimdShaSigma3            0      0.00%     70.50% # Class of executed instruction
system.switch_cpus0.op_class::SimdPredAlu            0      0.00%     70.50% # Class of executed instruction
system.switch_cpus0.op_class::MemRead          224484     12.60%     83.10% # Class of executed instruction
system.switch_cpus0.op_class::MemWrite         135512      7.61%     90.71% # Class of executed instruction
system.switch_cpus0.op_class::FloatMemRead       138603      7.78%     98.49% # Class of executed instruction
system.switch_cpus0.op_class::FloatMemWrite        26936      1.51%    100.00% # Class of executed instruction
system.switch_cpus0.op_class::IprAccess             0      0.00%    100.00% # Class of executed instruction
system.switch_cpus0.op_class::InstPrefetch            0      0.00%    100.00% # Class of executed instruction
system.switch_cpus0.op_class::total           1781529                       # Class of executed instruction
system.switch_cpus1.Branches                   224834                       # Number of branches fetched
system.switch_cpus1.committedInsts            1000001                       # Number of instructions committed
system.switch_cpus1.committedOps              2024684                       # Number of ops (including micro ops) committed
system.switch_cpus1.dtb.rdAccesses             291888                       # TLB accesses on read requests
system.switch_cpus1.dtb.rdMisses                   40                       # TLB misses on read requests
system.switch_cpus1.dtb.wrAccesses             213202                       # TLB accesses on write requests
system.switch_cpus1.dtb.wrMisses                    3                       # TLB misses on write requests
system.switch_cpus1.idle_fraction            0.000000                       # Percentage of idle cycles
system.switch_cpus1.itb.rdAccesses                  0                       # TLB accesses on read requests
system.switch_cpus1.itb.rdMisses                    0                       # TLB misses on read requests
system.switch_cpus1.itb.wrAccesses            1267697                       # TLB accesses on write requests
system.switch_cpus1.itb.wrMisses                   27                       # TLB misses on write requests
system.switch_cpus1.not_idle_fraction        1.000000                       # Percentage of non-idle cycles
system.switch_cpus1.numCycles                 5842644                       # number of cpu cycles simulated
system.switch_cpus1.numWorkItemsCompleted            0                       # number of work items this cpu completed
system.switch_cpus1.numWorkItemsStarted             0                       # number of work items this cpu started
system.switch_cpus1.num_busy_cycles      5842643.229602                       # Number of busy cycles
system.switch_cpus1.num_cc_register_reads       839766                       # number of times the CC registers were read
system.switch_cpus1.num_cc_register_writes       449805                       # number of times the CC registers were written
system.switch_cpus1.num_conditional_control_insts       102459                       # number of instructions that are conditional controls
system.switch_cpus1.num_fp_alu_accesses         16406                       # Number of float alu accesses
system.switch_cpus1.num_fp_insts                16406                       # number of float instructions
system.switch_cpus1.num_fp_register_reads        27540                       # number of times the floating registers were read
system.switch_cpus1.num_fp_register_writes        14430                       # number of times the floating registers were written
system.switch_cpus1.num_func_calls             106054                       # number of times a function call or return occured
system.switch_cpus1.num_idle_cycles          0.770398                       # Number of idle cycles
system.switch_cpus1.num_int_alu_accesses      2003876                       # Number of integer alu accesses
system.switch_cpus1.num_int_insts             2003876                       # number of integer instructions
system.switch_cpus1.num_int_register_reads      4247890                       # number of times the integer registers were read
system.switch_cpus1.num_int_register_writes      1572123                       # number of times the integer registers were written
system.switch_cpus1.num_load_insts             291886                       # Number of load instructions
system.switch_cpus1.num_mem_refs               505086                       # number of memory refs
system.switch_cpus1.num_store_insts            213200                       # Number of store instructions
system.switch_cpus1.num_vec_alu_accesses            0                       # Number of vector alu accesses
system.switch_cpus1.num_vec_insts                   0                       # number of vector instructions
system.switch_cpus1.num_vec_register_reads            0                       # number of times the vector registers were read
system.switch_cpus1.num_vec_register_writes            0                       # number of times the vector registers were written
system.switch_cpus1.op_class::No_OpClass         6797      0.34%      0.34% # Class of executed instruction
system.switch_cpus1.op_class::IntAlu          1497763     73.98%     74.31% # Class of executed instruction
system.switch_cpus1.op_class::IntMult             941      0.05%     74.36% # Class of executed instruction
system.switch_cpus1.op_class::IntDiv             2289      0.11%     74.47% # Class of executed instruction
system.switch_cpus1.op_class::FloatAdd            654      0.03%     74.50% # Class of executed instruction
system.switch_cpus1.op_class::FloatCmp              0      0.00%     74.50% # Class of executed instruction
system.switch_cpus1.op_class::FloatCvt              0      0.00%     74.50% # Class of executed instruction
system.switch_cpus1.op_class::FloatMult             0      0.00%     74.50% # Class of executed instruction
system.switch_cpus1.op_class::FloatMultAcc            0      0.00%     74.50% # Class of executed instruction
system.switch_cpus1.op_class::FloatDiv              0      0.00%     74.50% # Class of executed instruction
system.switch_cpus1.op_class::FloatMisc             0      0.00%     74.50% # Class of executed instruction
system.switch_cpus1.op_class::FloatSqrt             0      0.00%     74.50% # Class of executed instruction
system.switch_cpus1.op_class::SimdAdd               0      0.00%     74.50% # Class of executed instruction
system.switch_cpus1.op_class::SimdAddAcc            0      0.00%     74.50% # Class of executed instruction
system.switch_cpus1.op_class::SimdAlu            2624      0.13%     74.63% # Class of executed instruction
system.switch_cpus1.op_class::SimdCmp               0      0.00%     74.63% # Class of executed instruction
system.switch_cpus1.op_class::SimdCvt            2630      0.13%     74.76% # Class of executed instruction
system.switch_cpus1.op_class::SimdMisc           5900      0.29%     75.05% # Class of executed instruction
system.switch_cpus1.op_class::SimdMult              0      0.00%     75.05% # Class of executed instruction
system.switch_cpus1.op_class::SimdMultAcc            0      0.00%     75.05% # Class of executed instruction
system.switch_cpus1.op_class::SimdShift             0      0.00%     75.05% # Class of executed instruction
system.switch_cpus1.op_class::SimdShiftAcc            0      0.00%     75.05% # Class of executed instruction
system.switch_cpus1.op_class::SimdDiv               0      0.00%     75.05% # Class of executed instruction
system.switch_cpus1.op_class::SimdSqrt              0      0.00%     75.05% # Class of executed instruction
system.switch_cpus1.op_class::SimdFloatAdd            0      0.00%     75.05% # Class of executed instruction
system.switch_cpus1.op_class::SimdFloatAlu            0      0.00%     75.05% # Class of executed instruction
system.switch_cpus1.op_class::SimdFloatCmp            0      0.00%     75.05% # Class of executed instruction
system.switch_cpus1.op_class::SimdFloatCvt            0      0.00%     75.05% # Class of executed instruction
system.switch_cpus1.op_class::SimdFloatDiv            0      0.00%     75.05% # Class of executed instruction
system.switch_cpus1.op_class::SimdFloatMisc            0      0.00%     75.05% # Class of executed instruction
system.switch_cpus1.op_class::SimdFloatMult            0      0.00%     75.05% # Class of executed instruction
system.switch_cpus1.op_class::SimdFloatMultAcc            0      0.00%     75.05% # Class of executed instruction
system.switch_cpus1.op_class::SimdFloatSqrt            0      0.00%     75.05% # Class of executed instruction
system.switch_cpus1.op_class::SimdReduceAdd            0      0.00%     75.05% # Class of executed instruction
system.switch_cpus1.op_class::SimdReduceAlu            0      0.00%     75.05% # Class of executed instruction
system.switch_cpus1.op_class::SimdReduceCmp            0      0.00%     75.05% # Class of executed instruction
system.switch_cpus1.op_class::SimdFloatReduceAdd            0      0.00%     75.05% # Class of executed instruction
system.switch_cpus1.op_class::SimdFloatReduceCmp            0      0.00%     75.05% # Class of executed instruction
system.switch_cpus1.op_class::SimdAes               0      0.00%     75.05% # Class of executed instruction
system.switch_cpus1.op_class::SimdAesMix            0      0.00%     75.05% # Class of executed instruction
system.switch_cpus1.op_class::SimdSha1Hash            0      0.00%     75.05% # Class of executed instruction
system.switch_cpus1.op_class::SimdSha1Hash2            0      0.00%     75.05% # Class of executed instruction
system.switch_cpus1.op_class::SimdSha256Hash            0      0.00%     75.05% # Class of executed instruction
system.switch_cpus1.op_class::SimdSha256Hash2            0      0.00%     75.05% # Class of executed instruction
system.switch_cpus1.op_class::SimdShaSigma2            0      0.00%     75.05% # Class of executed instruction
system.switch_cpus1.op_class::SimdShaSigma3            0      0.00%     75.05% # Class of executed instruction
system.switch_cpus1.op_class::SimdPredAlu            0      0.00%     75.05% # Class of executed instruction
system.switch_cpus1.op_class::MemRead          289904     14.32%     89.37% # Class of executed instruction
system.switch_cpus1.op_class::MemWrite         212546     10.50%     99.87% # Class of executed instruction
system.switch_cpus1.op_class::FloatMemRead         1982      0.10%     99.97% # Class of executed instruction
system.switch_cpus1.op_class::FloatMemWrite          654      0.03%    100.00% # Class of executed instruction
system.switch_cpus1.op_class::IprAccess             0      0.00%    100.00% # Class of executed instruction
system.switch_cpus1.op_class::InstPrefetch            0      0.00%    100.00% # Class of executed instruction
system.switch_cpus1.op_class::total           2024684                       # Class of executed instruction
system.switch_cpus_10.branchPred.BTBCorrect            0                       # Number of correct BTB predictions (this stat may not work properly.
system.switch_cpus_10.branchPred.BTBHitPct     0.000000                       # BTB Hit Percentage
system.switch_cpus_10.branchPred.BTBHits            0                       # Number of BTB hits
system.switch_cpus_10.branchPred.BTBLookups      8539751                       # Number of BTB lookups
system.switch_cpus_10.branchPred.RASInCorrect          819                       # Number of incorrect RAS predictions.
system.switch_cpus_10.branchPred.condIncorrect       658975                       # Number of conditional branches incorrect
system.switch_cpus_10.branchPred.condPredicted      8070046                       # Number of conditional branches predicted
system.switch_cpus_10.branchPred.indirectHits      4345160                       # Number of indirect target hits.
system.switch_cpus_10.branchPred.indirectLookups      8539751                       # Number of indirect predictor lookups.
system.switch_cpus_10.branchPred.indirectMisses      4194591                       # Number of indirect misses.
system.switch_cpus_10.branchPred.lookups     11457932                       # Number of BP lookups
system.switch_cpus_10.branchPred.usedRAS      1561615                       # Number of times the RAS was used to get a target.
system.switch_cpus_10.branchPredindirectMispredicted       548992                       # Number of mispredicted indirect branches.
system.switch_cpus_10.cc_regfile_reads       41445577                       # number of cc regfile reads
system.switch_cpus_10.cc_regfile_writes      20359989                       # number of cc regfile writes
system.switch_cpus_10.commit.amos                   0                       # Number of atomic instructions committed
system.switch_cpus_10.commit.branchMispredicts       658990                       # The number of times a branch was mispredicted
system.switch_cpus_10.commit.branches         8861321                       # Number of branches committed
system.switch_cpus_10.commit.bw_lim_events      4081218                       # number cycles where commit BW limit reached
system.switch_cpus_10.commit.commitSquashedInsts     15001026                       # The number of squashed insts skipped by commit
system.switch_cpus_10.commit.committedInsts     50000004                       # Number of instructions committed
system.switch_cpus_10.commit.committedOps     90128580                       # Number of ops (including micro ops) committed
system.switch_cpus_10.commit.committed_per_cycle::samples     37393188                       # Number of insts commited each cycle
system.switch_cpus_10.commit.committed_per_cycle::mean     2.410294                       # Number of insts commited each cycle
system.switch_cpus_10.commit.committed_per_cycle::stdev     2.693458                       # Number of insts commited each cycle
system.switch_cpus_10.commit.committed_per_cycle::underflows            0      0.00%      0.00% # Number of insts commited each cycle
system.switch_cpus_10.commit.committed_per_cycle::0     13741903     36.75%     36.75% # Number of insts commited each cycle
system.switch_cpus_10.commit.committed_per_cycle::1      5428680     14.52%     51.27% # Number of insts commited each cycle
system.switch_cpus_10.commit.committed_per_cycle::2      2965211      7.93%     59.20% # Number of insts commited each cycle
system.switch_cpus_10.commit.committed_per_cycle::3      5341580     14.28%     73.48% # Number of insts commited each cycle
system.switch_cpus_10.commit.committed_per_cycle::4      2050414      5.48%     78.97% # Number of insts commited each cycle
system.switch_cpus_10.commit.committed_per_cycle::5      1733635      4.64%     83.60% # Number of insts commited each cycle
system.switch_cpus_10.commit.committed_per_cycle::6      1128666      3.02%     86.62% # Number of insts commited each cycle
system.switch_cpus_10.commit.committed_per_cycle::7       921881      2.47%     89.09% # Number of insts commited each cycle
system.switch_cpus_10.commit.committed_per_cycle::8      4081218     10.91%    100.00% # Number of insts commited each cycle
system.switch_cpus_10.commit.committed_per_cycle::overflows            0      0.00%    100.00% # Number of insts commited each cycle
system.switch_cpus_10.commit.committed_per_cycle::min_value            0                       # Number of insts commited each cycle
system.switch_cpus_10.commit.committed_per_cycle::max_value            8                       # Number of insts commited each cycle
system.switch_cpus_10.commit.committed_per_cycle::total     37393188                       # Number of insts commited each cycle
system.switch_cpus_10.commit.fp_insts        18590553                       # Number of committed floating point instructions.
system.switch_cpus_10.commit.function_calls      1386337                       # Number of function calls committed.
system.switch_cpus_10.commit.int_insts       79437856                       # Number of committed integer instructions.
system.switch_cpus_10.commit.loads           18367532                       # Number of loads committed
system.switch_cpus_10.commit.membars                0                       # Number of memory barriers committed
system.switch_cpus_10.commit.op_class_0::No_OpClass       478999      0.53%      0.53% # Class of committed instruction
system.switch_cpus_10.commit.op_class_0::IntAlu     53847520     59.75%     60.28% # Class of committed instruction
system.switch_cpus_10.commit.op_class_0::IntMult       208982      0.23%     60.51% # Class of committed instruction
system.switch_cpus_10.commit.op_class_0::IntDiv            0      0.00%     60.51% # Class of committed instruction
system.switch_cpus_10.commit.op_class_0::FloatAdd       191658      0.21%     60.72% # Class of committed instruction
system.switch_cpus_10.commit.op_class_0::FloatCmp            0      0.00%     60.72% # Class of committed instruction
system.switch_cpus_10.commit.op_class_0::FloatCvt            0      0.00%     60.72% # Class of committed instruction
system.switch_cpus_10.commit.op_class_0::FloatMult            0      0.00%     60.72% # Class of committed instruction
system.switch_cpus_10.commit.op_class_0::FloatMultAcc            0      0.00%     60.72% # Class of committed instruction
system.switch_cpus_10.commit.op_class_0::FloatDiv            0      0.00%     60.72% # Class of committed instruction
system.switch_cpus_10.commit.op_class_0::FloatMisc            0      0.00%     60.72% # Class of committed instruction
system.switch_cpus_10.commit.op_class_0::FloatSqrt            0      0.00%     60.72% # Class of committed instruction
system.switch_cpus_10.commit.op_class_0::SimdAdd            0      0.00%     60.72% # Class of committed instruction
system.switch_cpus_10.commit.op_class_0::SimdAddAcc            0      0.00%     60.72% # Class of committed instruction
system.switch_cpus_10.commit.op_class_0::SimdAlu       561676      0.62%     61.34% # Class of committed instruction
system.switch_cpus_10.commit.op_class_0::SimdCmp            0      0.00%     61.34% # Class of committed instruction
system.switch_cpus_10.commit.op_class_0::SimdCvt            0      0.00%     61.34% # Class of committed instruction
system.switch_cpus_10.commit.op_class_0::SimdMisc        15079      0.02%     61.36% # Class of committed instruction
system.switch_cpus_10.commit.op_class_0::SimdMult            0      0.00%     61.36% # Class of committed instruction
system.switch_cpus_10.commit.op_class_0::SimdMultAcc            0      0.00%     61.36% # Class of committed instruction
system.switch_cpus_10.commit.op_class_0::SimdShift            0      0.00%     61.36% # Class of committed instruction
system.switch_cpus_10.commit.op_class_0::SimdShiftAcc            0      0.00%     61.36% # Class of committed instruction
system.switch_cpus_10.commit.op_class_0::SimdDiv            0      0.00%     61.36% # Class of committed instruction
system.switch_cpus_10.commit.op_class_0::SimdSqrt            0      0.00%     61.36% # Class of committed instruction
system.switch_cpus_10.commit.op_class_0::SimdFloatAdd      3361611      3.73%     65.09% # Class of committed instruction
system.switch_cpus_10.commit.op_class_0::SimdFloatAlu            0      0.00%     65.09% # Class of committed instruction
system.switch_cpus_10.commit.op_class_0::SimdFloatCmp        11561      0.01%     65.10% # Class of committed instruction
system.switch_cpus_10.commit.op_class_0::SimdFloatCvt      1445202      1.60%     66.71% # Class of committed instruction
system.switch_cpus_10.commit.op_class_0::SimdFloatDiv       123081      0.14%     66.84% # Class of committed instruction
system.switch_cpus_10.commit.op_class_0::SimdFloatMisc            0      0.00%     66.84% # Class of committed instruction
system.switch_cpus_10.commit.op_class_0::SimdFloatMult      3307967      3.67%     70.51% # Class of committed instruction
system.switch_cpus_10.commit.op_class_0::SimdFloatMultAcc            0      0.00%     70.51% # Class of committed instruction
system.switch_cpus_10.commit.op_class_0::SimdFloatSqrt        11773      0.01%     70.53% # Class of committed instruction
system.switch_cpus_10.commit.op_class_0::SimdReduceAdd            0      0.00%     70.53% # Class of committed instruction
system.switch_cpus_10.commit.op_class_0::SimdReduceAlu            0      0.00%     70.53% # Class of committed instruction
system.switch_cpus_10.commit.op_class_0::SimdReduceCmp            0      0.00%     70.53% # Class of committed instruction
system.switch_cpus_10.commit.op_class_0::SimdFloatReduceAdd            0      0.00%     70.53% # Class of committed instruction
system.switch_cpus_10.commit.op_class_0::SimdFloatReduceCmp            0      0.00%     70.53% # Class of committed instruction
system.switch_cpus_10.commit.op_class_0::SimdAes            0      0.00%     70.53% # Class of committed instruction
system.switch_cpus_10.commit.op_class_0::SimdAesMix            0      0.00%     70.53% # Class of committed instruction
system.switch_cpus_10.commit.op_class_0::SimdSha1Hash            0      0.00%     70.53% # Class of committed instruction
system.switch_cpus_10.commit.op_class_0::SimdSha1Hash2            0      0.00%     70.53% # Class of committed instruction
system.switch_cpus_10.commit.op_class_0::SimdSha256Hash            0      0.00%     70.53% # Class of committed instruction
system.switch_cpus_10.commit.op_class_0::SimdSha256Hash2            0      0.00%     70.53% # Class of committed instruction
system.switch_cpus_10.commit.op_class_0::SimdShaSigma2            0      0.00%     70.53% # Class of committed instruction
system.switch_cpus_10.commit.op_class_0::SimdShaSigma3            0      0.00%     70.53% # Class of committed instruction
system.switch_cpus_10.commit.op_class_0::SimdPredAlu            0      0.00%     70.53% # Class of committed instruction
system.switch_cpus_10.commit.op_class_0::MemRead     11351629     12.59%     83.12% # Class of committed instruction
system.switch_cpus_10.commit.op_class_0::MemWrite      6846440      7.60%     90.72% # Class of committed instruction
system.switch_cpus_10.commit.op_class_0::FloatMemRead      7015903      7.78%     98.50% # Class of committed instruction
system.switch_cpus_10.commit.op_class_0::FloatMemWrite      1349499      1.50%    100.00% # Class of committed instruction
system.switch_cpus_10.commit.op_class_0::IprAccess            0      0.00%    100.00% # Class of committed instruction
system.switch_cpus_10.commit.op_class_0::InstPrefetch            0      0.00%    100.00% # Class of committed instruction
system.switch_cpus_10.commit.op_class_0::total     90128580                       # Class of committed instruction
system.switch_cpus_10.commit.refs            26563471                       # Number of memory references committed
system.switch_cpus_10.commit.swp_count              0                       # Number of s/w prefetches committed
system.switch_cpus_10.commit.vec_insts              0                       # Number of committed Vector instructions.
system.switch_cpus_10.committedInsts         50000004                       # Number of Instructions Simulated
system.switch_cpus_10.committedOps           90128580                       # Number of Ops (including micro ops) Simulated
system.switch_cpus_10.cpi                    0.793218                       # CPI: Cycles Per Instruction
system.switch_cpus_10.cpi_total              0.793218                       # CPI: Total CPI of All Threads
system.switch_cpus_10.decode.BlockedCycles      2203261                       # Number of cycles decode is blocked
system.switch_cpus_10.decode.DecodedInsts    113302210                       # Number of instructions handled by decode
system.switch_cpus_10.decode.IdleCycles      18921570                       # Number of cycles decode is idle
system.switch_cpus_10.decode.RunCycles       17729787                       # Number of cycles decode is running
system.switch_cpus_10.decode.SquashCycles       660692                       # Number of cycles decode is squashing
system.switch_cpus_10.decode.UnblockCycles       143859                       # Number of cycles decode is unblocking
system.switch_cpus_10.dtb.rdAccesses         20249908                       # TLB accesses on read requests
system.switch_cpus_10.dtb.rdMisses             111510                       # TLB misses on read requests
system.switch_cpus_10.dtb.wrAccesses          9107717                       # TLB accesses on write requests
system.switch_cpus_10.dtb.wrMisses              19092                       # TLB misses on write requests
system.switch_cpus_10.fetch.Branches         11457932                       # Number of branches that fetch encountered
system.switch_cpus_10.fetch.CacheLines        9328590                       # Number of cache lines fetched
system.switch_cpus_10.fetch.Cycles           19484713                       # Number of cycles fetch has run and was not squashing or blocked
system.switch_cpus_10.fetch.IcacheSquashes       295295                       # Number of outstanding Icache misses that were squashed
system.switch_cpus_10.fetch.IcacheWaitRetryStallCycles          671                       # Number of stall cycles due to full MSHR
system.switch_cpus_10.fetch.Insts            64417975                       # Number of instructions fetch has processed
system.switch_cpus_10.fetch.MiscStallCycles           49                       # Number of cycles fetch has spent waiting on interrupts, or bad addresses, or out of MSHRs
system.switch_cpus_10.fetch.PendingTrapStallCycles          136                       # Number of stall cycles due to pending traps
system.switch_cpus_10.fetch.SquashCycles      1321384                       # Number of cycles fetch has spent squashing
system.switch_cpus_10.fetch.branchRate       0.288897                       # Number of branch fetches per cycle
system.switch_cpus_10.fetch.icacheStallCycles     19512913                       # Number of cycles fetch is stalled on an Icache miss
system.switch_cpus_10.fetch.predictedBranches      5906775                       # Number of branches that fetch has predicted taken
system.switch_cpus_10.fetch.rate             1.624219                       # Number of inst fetches per cycle
system.switch_cpus_10.fetch.rateDist::samples     39659174                       # Number of instructions fetched each cycle (Total)
system.switch_cpus_10.fetch.rateDist::mean     2.936861                       # Number of instructions fetched each cycle (Total)
system.switch_cpus_10.fetch.rateDist::stdev     3.506563                       # Number of instructions fetched each cycle (Total)
system.switch_cpus_10.fetch.rateDist::underflows            0      0.00%      0.00% # Number of instructions fetched each cycle (Total)
system.switch_cpus_10.fetch.rateDist::0      21153482     53.34%     53.34% # Number of instructions fetched each cycle (Total)
system.switch_cpus_10.fetch.rateDist::1        759568      1.92%     55.25% # Number of instructions fetched each cycle (Total)
system.switch_cpus_10.fetch.rateDist::2       1222206      3.08%     58.34% # Number of instructions fetched each cycle (Total)
system.switch_cpus_10.fetch.rateDist::3        841013      2.12%     60.46% # Number of instructions fetched each cycle (Total)
system.switch_cpus_10.fetch.rateDist::4       2204711      5.56%     66.01% # Number of instructions fetched each cycle (Total)
system.switch_cpus_10.fetch.rateDist::5        634197      1.60%     67.61% # Number of instructions fetched each cycle (Total)
system.switch_cpus_10.fetch.rateDist::6       1640886      4.14%     71.75% # Number of instructions fetched each cycle (Total)
system.switch_cpus_10.fetch.rateDist::7        713587      1.80%     73.55% # Number of instructions fetched each cycle (Total)
system.switch_cpus_10.fetch.rateDist::8      10489524     26.45%    100.00% # Number of instructions fetched each cycle (Total)
system.switch_cpus_10.fetch.rateDist::overflows            0      0.00%    100.00% # Number of instructions fetched each cycle (Total)
system.switch_cpus_10.fetch.rateDist::min_value            0                       # Number of instructions fetched each cycle (Total)
system.switch_cpus_10.fetch.rateDist::max_value            8                       # Number of instructions fetched each cycle (Total)
system.switch_cpus_10.fetch.rateDist::total     39659174                       # Number of instructions fetched each cycle (Total)
system.switch_cpus_10.fp_regfile_reads       29302922                       # number of floating regfile reads
system.switch_cpus_10.fp_regfile_writes      16881022                       # number of floating regfile writes
system.switch_cpus_10.idleCycles                 1725                       # Total number of cycles that the CPU has spent unscheduled due to idling
system.switch_cpus_10.iew.branchMispredicts       764392                       # Number of branch mispredicts detected at execute
system.switch_cpus_10.iew.exec_branches       9354808                       # Number of branches executed
system.switch_cpus_10.iew.exec_nop                  0                       # number of nop insts executed
system.switch_cpus_10.iew.exec_rate          2.506261                       # Inst execution rate
system.switch_cpus_10.iew.exec_refs          29347256                       # number of memory reference insts executed
system.switch_cpus_10.iew.exec_stores         9107717                       # Number of stores executed
system.switch_cpus_10.iew.exec_swp                  0                       # number of swp insts executed
system.switch_cpus_10.iew.iewBlockCycles      1614979                       # Number of cycles IEW is blocking
system.switch_cpus_10.iew.iewDispLoadInsts     21224094                       # Number of dispatched load instructions
system.switch_cpus_10.iew.iewDispNonSpecInsts            0                       # Number of dispatched non-speculative instructions
system.switch_cpus_10.iew.iewDispSquashedInsts       559198                       # Number of squashed instructions skipped by dispatch
system.switch_cpus_10.iew.iewDispStoreInsts      9743773                       # Number of dispatched store instructions
system.switch_cpus_10.iew.iewDispatchedInsts    105124484                       # Number of instructions dispatched to IQ
system.switch_cpus_10.iew.iewExecLoadInsts     20239539                       # Number of load instructions executed
system.switch_cpus_10.iew.iewExecSquashedInsts      1305324                       # Number of squashed instructions skipped in execute
system.switch_cpus_10.iew.iewExecutedInsts     99400575                       # Number of executed instructions
system.switch_cpus_10.iew.iewIQFullEvents         3732                       # Number of times the IQ has become full, causing a stall
system.switch_cpus_10.iew.iewIdleCycles             0                       # Number of cycles IEW is idle
system.switch_cpus_10.iew.iewLSQFullEvents        11932                       # Number of times the LSQ has become full, causing a stall
system.switch_cpus_10.iew.iewSquashCycles       660692                       # Number of cycles IEW is squashing
system.switch_cpus_10.iew.iewUnblockCycles        16674                       # Number of cycles IEW is unblocking
system.switch_cpus_10.iew.lsq.thread0.blockedLoads            0                       # Number of blocked loads due to partial load-store forwarding
system.switch_cpus_10.iew.lsq.thread0.cacheBlocked         2930                       # Number of times an access to memory failed due to the cache being blocked
system.switch_cpus_10.iew.lsq.thread0.forwLoads      2871632                       # Number of loads that had data forwarded from stores
system.switch_cpus_10.iew.lsq.thread0.ignoredResponses        19795                       # Number of memory responses ignored because the instruction is squashed
system.switch_cpus_10.iew.lsq.thread0.invAddrLoads            0                       # Number of loads ignored due to an invalid address
system.switch_cpus_10.iew.lsq.thread0.invAddrSwpfs            0                       # Number of software prefetches ignored due to an invalid address
system.switch_cpus_10.iew.lsq.thread0.memOrderViolation         2104                       # Number of memory ordering violations
system.switch_cpus_10.iew.lsq.thread0.rescheduledLoads         7528                       # Number of loads that were rescheduled
system.switch_cpus_10.iew.lsq.thread0.squashedLoads      2856553                       # Number of loads squashed
system.switch_cpus_10.iew.lsq.thread0.squashedStores      1547832                       # Number of stores squashed
system.switch_cpus_10.iew.memOrderViolationEvents         2104                       # Number of memory order violations
system.switch_cpus_10.iew.predictedNotTakenIncorrect       595429                       # Number of branches that were predicted not taken incorrectly
system.switch_cpus_10.iew.predictedTakenIncorrect       168963                       # Number of branches that were predicted taken incorrectly
system.switch_cpus_10.iew.wb_consumers      110567491                       # num instructions consuming a value
system.switch_cpus_10.iew.wb_count           98405030                       # cumulative count of insts written-back
system.switch_cpus_10.iew.wb_fanout          0.611175                       # average fanout of values written-back
system.switch_cpus_10.iew.wb_producers       67576074                       # num instructions producing a value
system.switch_cpus_10.iew.wb_rate            2.481160                       # insts written-back per cycle
system.switch_cpus_10.iew.wb_sent            98583992                       # cumulative count of insts sent to commit
system.switch_cpus_10.int_regfile_reads     137654063                       # number of integer regfile reads
system.switch_cpus_10.int_regfile_writes     61770023                       # number of integer regfile writes
system.switch_cpus_10.ipc                    1.260688                       # IPC: Instructions Per Cycle
system.switch_cpus_10.ipc_total              1.260688                       # IPC: Total IPC of All Threads
system.switch_cpus_10.iq.FU_type_0::No_OpClass       617764      0.61%      0.61% # Type of FU issued
system.switch_cpus_10.iq.FU_type_0::IntAlu     60532207     60.11%     60.72% # Type of FU issued
system.switch_cpus_10.iq.FU_type_0::IntMult       215017      0.21%     60.93% # Type of FU issued
system.switch_cpus_10.iq.FU_type_0::IntDiv            0      0.00%     60.93% # Type of FU issued
system.switch_cpus_10.iq.FU_type_0::FloatAdd       292615      0.29%     61.23% # Type of FU issued
system.switch_cpus_10.iq.FU_type_0::FloatCmp            0      0.00%     61.23% # Type of FU issued
system.switch_cpus_10.iq.FU_type_0::FloatCvt            0      0.00%     61.23% # Type of FU issued
system.switch_cpus_10.iq.FU_type_0::FloatMult            0      0.00%     61.23% # Type of FU issued
system.switch_cpus_10.iq.FU_type_0::FloatMultAcc            0      0.00%     61.23% # Type of FU issued
system.switch_cpus_10.iq.FU_type_0::FloatDiv            0      0.00%     61.23% # Type of FU issued
system.switch_cpus_10.iq.FU_type_0::FloatMisc            0      0.00%     61.23% # Type of FU issued
system.switch_cpus_10.iq.FU_type_0::FloatSqrt            0      0.00%     61.23% # Type of FU issued
system.switch_cpus_10.iq.FU_type_0::SimdAdd            0      0.00%     61.23% # Type of FU issued
system.switch_cpus_10.iq.FU_type_0::SimdAddAcc            0      0.00%     61.23% # Type of FU issued
system.switch_cpus_10.iq.FU_type_0::SimdAlu       628963      0.62%     61.85% # Type of FU issued
system.switch_cpus_10.iq.FU_type_0::SimdCmp            0      0.00%     61.85% # Type of FU issued
system.switch_cpus_10.iq.FU_type_0::SimdCvt            0      0.00%     61.85% # Type of FU issued
system.switch_cpus_10.iq.FU_type_0::SimdMisc        19212      0.02%     61.87% # Type of FU issued
system.switch_cpus_10.iq.FU_type_0::SimdMult            0      0.00%     61.87% # Type of FU issued
system.switch_cpus_10.iq.FU_type_0::SimdMultAcc            0      0.00%     61.87% # Type of FU issued
system.switch_cpus_10.iq.FU_type_0::SimdShift            0      0.00%     61.87% # Type of FU issued
system.switch_cpus_10.iq.FU_type_0::SimdShiftAcc            0      0.00%     61.87% # Type of FU issued
system.switch_cpus_10.iq.FU_type_0::SimdDiv            0      0.00%     61.87% # Type of FU issued
system.switch_cpus_10.iq.FU_type_0::SimdSqrt            0      0.00%     61.87% # Type of FU issued
system.switch_cpus_10.iq.FU_type_0::SimdFloatAdd      3455033      3.43%     65.30% # Type of FU issued
system.switch_cpus_10.iq.FU_type_0::SimdFloatAlu            0      0.00%     65.30% # Type of FU issued
system.switch_cpus_10.iq.FU_type_0::SimdFloatCmp        11561      0.01%     65.31% # Type of FU issued
system.switch_cpus_10.iq.FU_type_0::SimdFloatCvt      1499684      1.49%     66.80% # Type of FU issued
system.switch_cpus_10.iq.FU_type_0::SimdFloatDiv       129752      0.13%     66.93% # Type of FU issued
system.switch_cpus_10.iq.FU_type_0::SimdFloatMisc            0      0.00%     66.93% # Type of FU issued
system.switch_cpus_10.iq.FU_type_0::SimdFloatMult      3461264      3.44%     70.37% # Type of FU issued
system.switch_cpus_10.iq.FU_type_0::SimdFloatMultAcc            0      0.00%     70.37% # Type of FU issued
system.switch_cpus_10.iq.FU_type_0::SimdFloatSqrt        14287      0.01%     70.38% # Type of FU issued
system.switch_cpus_10.iq.FU_type_0::SimdReduceAdd            0      0.00%     70.38% # Type of FU issued
system.switch_cpus_10.iq.FU_type_0::SimdReduceAlu            0      0.00%     70.38% # Type of FU issued
system.switch_cpus_10.iq.FU_type_0::SimdReduceCmp            0      0.00%     70.38% # Type of FU issued
system.switch_cpus_10.iq.FU_type_0::SimdFloatReduceAdd            0      0.00%     70.38% # Type of FU issued
system.switch_cpus_10.iq.FU_type_0::SimdFloatReduceCmp            0      0.00%     70.38% # Type of FU issued
system.switch_cpus_10.iq.FU_type_0::SimdAes            0      0.00%     70.38% # Type of FU issued
system.switch_cpus_10.iq.FU_type_0::SimdAesMix            0      0.00%     70.38% # Type of FU issued
system.switch_cpus_10.iq.FU_type_0::SimdSha1Hash            0      0.00%     70.38% # Type of FU issued
system.switch_cpus_10.iq.FU_type_0::SimdSha1Hash2            0      0.00%     70.38% # Type of FU issued
system.switch_cpus_10.iq.FU_type_0::SimdSha256Hash            0      0.00%     70.38% # Type of FU issued
system.switch_cpus_10.iq.FU_type_0::SimdSha256Hash2            0      0.00%     70.38% # Type of FU issued
system.switch_cpus_10.iq.FU_type_0::SimdShaSigma2            0      0.00%     70.38% # Type of FU issued
system.switch_cpus_10.iq.FU_type_0::SimdShaSigma3            0      0.00%     70.38% # Type of FU issued
system.switch_cpus_10.iq.FU_type_0::SimdPredAlu            0      0.00%     70.38% # Type of FU issued
system.switch_cpus_10.iq.FU_type_0::MemRead     12671332     12.58%     82.96% # Type of FU issued
system.switch_cpus_10.iq.FU_type_0::MemWrite      7839033      7.78%     90.75% # Type of FU issued
system.switch_cpus_10.iq.FU_type_0::FloatMemRead      7902918      7.85%     98.59% # Type of FU issued
system.switch_cpus_10.iq.FU_type_0::FloatMemWrite      1415258      1.41%    100.00% # Type of FU issued
system.switch_cpus_10.iq.FU_type_0::IprAccess            0      0.00%    100.00% # Type of FU issued
system.switch_cpus_10.iq.FU_type_0::InstPrefetch            0      0.00%    100.00% # Type of FU issued
system.switch_cpus_10.iq.FU_type_0::total    100705900                       # Type of FU issued
system.switch_cpus_10.iq.fp_alu_accesses     20742764                       # Number of floating point alu accesses
system.switch_cpus_10.iq.fp_inst_queue_reads     40814652                       # Number of floating instruction queue reads
system.switch_cpus_10.iq.fp_inst_queue_wakeup_accesses     19484276                       # Number of floating instruction queue wakeup accesses
system.switch_cpus_10.iq.fp_inst_queue_writes     23150326                       # Number of floating instruction queue writes
system.switch_cpus_10.iq.fu_busy_cnt          1140370                       # FU busy when requested
system.switch_cpus_10.iq.fu_busy_rate        0.011324                       # FU busy rate (busy events/executed inst)
system.switch_cpus_10.iq.fu_full::No_OpClass            0      0.00%      0.00% # attempts to use FU when none available
system.switch_cpus_10.iq.fu_full::IntAlu       185324     16.25%     16.25% # attempts to use FU when none available
system.switch_cpus_10.iq.fu_full::IntMult            0      0.00%     16.25% # attempts to use FU when none available
system.switch_cpus_10.iq.fu_full::IntDiv            0      0.00%     16.25% # attempts to use FU when none available
system.switch_cpus_10.iq.fu_full::FloatAdd         2818      0.25%     16.50% # attempts to use FU when none available
system.switch_cpus_10.iq.fu_full::FloatCmp            0      0.00%     16.50% # attempts to use FU when none available
system.switch_cpus_10.iq.fu_full::FloatCvt            0      0.00%     16.50% # attempts to use FU when none available
system.switch_cpus_10.iq.fu_full::FloatMult            0      0.00%     16.50% # attempts to use FU when none available
system.switch_cpus_10.iq.fu_full::FloatMultAcc            0      0.00%     16.50% # attempts to use FU when none available
system.switch_cpus_10.iq.fu_full::FloatDiv            0      0.00%     16.50% # attempts to use FU when none available
system.switch_cpus_10.iq.fu_full::FloatMisc            0      0.00%     16.50% # attempts to use FU when none available
system.switch_cpus_10.iq.fu_full::FloatSqrt            0      0.00%     16.50% # attempts to use FU when none available
system.switch_cpus_10.iq.fu_full::SimdAdd            0      0.00%     16.50% # attempts to use FU when none available
system.switch_cpus_10.iq.fu_full::SimdAddAcc            0      0.00%     16.50% # attempts to use FU when none available
system.switch_cpus_10.iq.fu_full::SimdAlu         4051      0.36%     16.85% # attempts to use FU when none available
system.switch_cpus_10.iq.fu_full::SimdCmp            0      0.00%     16.85% # attempts to use FU when none available
system.switch_cpus_10.iq.fu_full::SimdCvt            0      0.00%     16.85% # attempts to use FU when none available
system.switch_cpus_10.iq.fu_full::SimdMisc           10      0.00%     16.85% # attempts to use FU when none available
system.switch_cpus_10.iq.fu_full::SimdMult            0      0.00%     16.85% # attempts to use FU when none available
system.switch_cpus_10.iq.fu_full::SimdMultAcc            0      0.00%     16.85% # attempts to use FU when none available
system.switch_cpus_10.iq.fu_full::SimdShift            0      0.00%     16.85% # attempts to use FU when none available
system.switch_cpus_10.iq.fu_full::SimdShiftAcc            0      0.00%     16.85% # attempts to use FU when none available
system.switch_cpus_10.iq.fu_full::SimdDiv            0      0.00%     16.85% # attempts to use FU when none available
system.switch_cpus_10.iq.fu_full::SimdSqrt            0      0.00%     16.85% # attempts to use FU when none available
system.switch_cpus_10.iq.fu_full::SimdFloatAdd        59066      5.18%     22.03% # attempts to use FU when none available
system.switch_cpus_10.iq.fu_full::SimdFloatAlu            0      0.00%     22.03% # attempts to use FU when none available
system.switch_cpus_10.iq.fu_full::SimdFloatCmp            0      0.00%     22.03% # attempts to use FU when none available
system.switch_cpus_10.iq.fu_full::SimdFloatCvt         8755      0.77%     22.80% # attempts to use FU when none available
system.switch_cpus_10.iq.fu_full::SimdFloatDiv            0      0.00%     22.80% # attempts to use FU when none available
system.switch_cpus_10.iq.fu_full::SimdFloatMisc            0      0.00%     22.80% # attempts to use FU when none available
system.switch_cpus_10.iq.fu_full::SimdFloatMult        28114      2.47%     25.27% # attempts to use FU when none available
system.switch_cpus_10.iq.fu_full::SimdFloatMultAcc            0      0.00%     25.27% # attempts to use FU when none available
[...]
system.cpu1.l2cache.ReadSharedReq_avg_miss_latency::total 155860.814083                       # average ReadSharedReq miss latency
system.cpu1.l2cache.ReadSharedReq_mshr_misses::.switch_cpus1.data         1210                       # number of ReadSharedReq MSHR misses
system.cpu1.l2cache.ReadSharedReq_mshr_misses::.switch_cpus_11.data        18772                       # number of ReadSharedReq MSHR misses
system.cpu1.l2cache.ReadSharedReq_mshr_misses::total        19982                       # number of ReadSharedReq MSHR misses
system.cpu1.l2cache.ReadSharedReq_mshr_miss_latency::.switch_cpus1.data    189689547                       # number of ReadSharedReq MSHR miss cycles
system.cpu1.l2cache.ReadSharedReq_mshr_miss_latency::.switch_cpus_11.data   2916388746                       # number of ReadSharedReq MSHR miss cycles
system.cpu1.l2cache.ReadSharedReq_mshr_miss_latency::total   3106078293                       # number of ReadSharedReq MSHR miss cycles
system.cpu1.l2cache.ReadSharedReq_mshr_miss_rate::.switch_cpus1.data     0.932922                       # mshr miss rate for ReadSharedReq accesses
system.cpu1.l2cache.ReadSharedReq_mshr_miss_rate::.switch_cpus_11.data     0.526652                       # mshr miss rate for ReadSharedReq accesses
system.cpu1.l2cache.ReadSharedReq_mshr_miss_rate::total     0.540917                       # mshr miss rate for ReadSharedReq accesses
system.cpu1.l2cache.ReadSharedReq_avg_mshr_miss_latency::.switch_cpus1.data 156768.220661                       # average ReadSharedReq mshr miss latency
system.cpu1.l2cache.ReadSharedReq_avg_mshr_miss_latency::.switch_cpus_11.data 155358.445877                       # average ReadSharedReq mshr miss latency
system.cpu1.l2cache.ReadSharedReq_avg_mshr_miss_latency::total 155443.814083                       # average ReadSharedReq mshr miss latency
system.cpu1.l2cache.tags.pwrStateResidencyTicks::UNDEFINED 1312326687549                       # Cumulative time (in ticks) in various power states
system.cpu1.l2cache.tags.tagsinuse          51.045682                       # Cycle average of tags in use
system.cpu1.l2cache.tags.total_refs             73833                       # Total number of references to valid blocks.
system.cpu1.l2cache.tags.sampled_refs           20292                       # Sample count of references to valid blocks.
system.cpu1.l2cache.tags.avg_refs            3.638527                       # Average number of references to valid blocks.
system.cpu1.l2cache.tags.warmup_cycle    1293351708033                       # Cycle when the warmup percentage was hit.
system.cpu1.l2cache.tags.occ_blocks::.cpu1.inst     0.003887                       # Average occupied blocks per requestor
system.cpu1.l2cache.tags.occ_blocks::.cpu1.data     0.014459                       # Average occupied blocks per requestor
system.cpu1.l2cache.tags.occ_blocks::.switch_cpus1.inst     0.721500                       # Average occupied blocks per requestor
system.cpu1.l2cache.tags.occ_blocks::.switch_cpus1.data     8.653956                       # Average occupied blocks per requestor
system.cpu1.l2cache.tags.occ_blocks::.switch_cpus_11.inst     0.192412                       # Average occupied blocks per requestor
system.cpu1.l2cache.tags.occ_blocks::.switch_cpus_11.data    41.459468                       # Average occupied blocks per requestor
system.cpu1.l2cache.tags.occ_percent::.cpu1.inst     0.000001                       # Average percentage of cache occupancy
system.cpu1.l2cache.tags.occ_percent::.cpu1.data     0.000004                       # Average percentage of cache occupancy
system.cpu1.l2cache.tags.occ_percent::.switch_cpus1.inst     0.000176                       # Average percentage of cache occupancy
system.cpu1.l2cache.tags.occ_percent::.switch_cpus1.data     0.002113                       # Average percentage of cache occupancy
system.cpu1.l2cache.tags.occ_percent::.switch_cpus_11.inst     0.000047                       # Average percentage of cache occupancy
system.cpu1.l2cache.tags.occ_percent::.switch_cpus_11.data     0.010122                       # Average percentage of cache occupancy
system.cpu1.l2cache.tags.occ_percent::total     0.012462                       # Average percentage of cache occupancy
system.cpu1.l2cache.tags.occ_task_id_blocks::1024         4096                       # Occupied blocks per task id
system.cpu1.l2cache.tags.age_task_id_blocks_1024::0           21                       # Occupied blocks per task id
system.cpu1.l2cache.tags.age_task_id_blocks_1024::1          126                       # Occupied blocks per task id
system.cpu1.l2cache.tags.age_task_id_blocks_1024::2         1257                       # Occupied blocks per task id
system.cpu1.l2cache.tags.age_task_id_blocks_1024::3         2184                       # Occupied blocks per task id
system.cpu1.l2cache.tags.age_task_id_blocks_1024::4          508                       # Occupied blocks per task id
system.cpu1.l2cache.tags.occ_task_id_percent::1024            1                       # Percentage of cache occupancy per task id
system.cpu1.l2cache.tags.tag_accesses         1201652                       # Number of tag accesses
system.cpu1.l2cache.tags.data_accesses        1201652                       # Number of data accesses
system.cpu1.toL2Bus.pwrStateResidencyTicks::UNDEFINED 1312326687549                       # Cumulative time (in ticks) in various power states
system.cpu1.toL2Bus.trans_dist::ReadResp        37227                       # Transaction distribution
system.cpu1.toL2Bus.trans_dist::WritebackDirty          124                       # Transaction distribution
system.cpu1.toL2Bus.trans_dist::CleanEvict        52604                       # Transaction distribution
system.cpu1.toL2Bus.trans_dist::ReadExReq          103                       # Transaction distribution
system.cpu1.toL2Bus.trans_dist::ReadExResp          103                       # Transaction distribution
system.cpu1.toL2Bus.trans_dist::ReadCleanReq          286                       # Transaction distribution
system.cpu1.toL2Bus.trans_dist::ReadSharedReq        36941                       # Transaction distribution
system.cpu1.toL2Bus.pkt_count_system.cpu1.icache.mem_side::system.cpu1.l2cache.cpu_side          572                       # Packet count per connected master and slave (bytes)
system.cpu1.toL2Bus.pkt_count_system.cpu1.dcache.mem_side::system.cpu1.l2cache.cpu_side       110620                       # Packet count per connected master and slave (bytes)
system.cpu1.toL2Bus.pkt_count::total           111192                       # Packet count per connected master and slave (bytes)
system.cpu1.toL2Bus.pkt_size_system.cpu1.icache.mem_side::system.cpu1.l2cache.cpu_side        18304                       # Cumulative packet size per connected master and slave (bytes)
system.cpu1.toL2Bus.pkt_size_system.cpu1.dcache.mem_side::system.cpu1.l2cache.cpu_side      2378304                       # Cumulative packet size per connected master and slave (bytes)
system.cpu1.toL2Bus.pkt_size::total           2396608                       # Cumulative packet size per connected master and slave (bytes)
system.cpu1.toL2Bus.snoops                      16196                       # Total snoops (count)
system.cpu1.toL2Bus.snoopTraffic                  448                       # Total snoop traffic (bytes)
system.cpu1.toL2Bus.snoop_fanout::samples        53526                       # Request fanout histogram
system.cpu1.toL2Bus.snoop_fanout::mean       0.006614                       # Request fanout histogram
system.cpu1.toL2Bus.snoop_fanout::stdev      0.081055                       # Request fanout histogram
system.cpu1.toL2Bus.snoop_fanout::underflows            0      0.00%      0.00% # Request fanout histogram
system.cpu1.toL2Bus.snoop_fanout::0             53172     99.34%     99.34% # Request fanout histogram
system.cpu1.toL2Bus.snoop_fanout::1               354      0.66%    100.00% # Request fanout histogram
system.cpu1.toL2Bus.snoop_fanout::2                 0      0.00%    100.00% # Request fanout histogram
system.cpu1.toL2Bus.snoop_fanout::3                 0      0.00%    100.00% # Request fanout histogram
system.cpu1.toL2Bus.snoop_fanout::4                 0      0.00%    100.00% # Request fanout histogram
system.cpu1.toL2Bus.snoop_fanout::overflows            0      0.00%    100.00% # Request fanout histogram
system.cpu1.toL2Bus.snoop_fanout::min_value            0                       # Request fanout histogram
system.cpu1.toL2Bus.snoop_fanout::max_value            1                       # Request fanout histogram
system.cpu1.toL2Bus.snoop_fanout::total         53526                       # Request fanout histogram
system.cpu1.toL2Bus.reqLayer0.occupancy      30897198                       # Layer occupancy (ticks)
system.cpu1.toL2Bus.reqLayer0.utilization          0.2                       # Layer utilization (%)
system.cpu1.toL2Bus.respLayer1.occupancy     46340793                       # Layer occupancy (ticks)
system.cpu1.toL2Bus.respLayer1.utilization          0.2                       # Layer utilization (%)
system.cpu1.toL2Bus.respLayer0.occupancy       356535                       # Layer occupancy (ticks)
system.cpu1.toL2Bus.respLayer0.utilization          0.0                       # Layer utilization (%)
system.switch_cpus_10.pwrStateResidencyTicks::OFF  18974979933                       # Cumulative time (in ticks) in various power states
system.switch_cpus_10.dtb.walker.pwrStateResidencyTicks::UNDEFINED 1312326687549                       # Cumulative time (in ticks) in various power states
system.switch_cpus_10.itb.walker.pwrStateResidencyTicks::UNDEFINED 1312326687549                       # Cumulative time (in ticks) in various power states
system.switch_cpus_11.pwrStateResidencyTicks::OFF  18974979933                       # Cumulative time (in ticks) in various power states
system.switch_cpus_11.dtb.walker.pwrStateResidencyTicks::UNDEFINED 1312326687549                       # Cumulative time (in ticks) in various power states
system.switch_cpus_11.itb.walker.pwrStateResidencyTicks::UNDEFINED 1312326687549                       # Cumulative time (in ticks) in various power states
system.cpu_voltage_domain.voltage                   1                       # Voltage in Volts
system.switch_cpus1.numPwrStateTransitions            1                       # Number of power state transitions
system.switch_cpus1.pwrStateResidencyTicks::UNDEFINED 1293351707616                       # Cumulative time (in ticks) in various power states
system.switch_cpus1.pwrStateResidencyTicks::OFF  18974979933                       # Cumulative time (in ticks) in various power states
system.switch_cpus1.dtb.walker.pwrStateResidencyTicks::UNDEFINED 1312326687549                       # Cumulative time (in ticks) in various power states
system.switch_cpus1.itb.walker.pwrStateResidencyTicks::UNDEFINED 1312326687549                       # Cumulative time (in ticks) in various power states
system.mem_ctrls.pwrStateResidencyTicks::UNDEFINED 1312326687549                       # Cumulative time (in ticks) in various power states
system.mem_ctrls.bytes_read::.cpu0.inst            64                       # Number of bytes read from this memory
system.mem_ctrls.bytes_read::.cpu0.data            64                       # Number of bytes read from this memory
system.mem_ctrls.bytes_read::.cpu1.inst            64                       # Number of bytes read from this memory
system.mem_ctrls.bytes_read::.cpu1.data            64                       # Number of bytes read from this memory
system.mem_ctrls.bytes_read::.switch_cpus0.inst        22336                       # Number of bytes read from this memory
system.mem_ctrls.bytes_read::.switch_cpus0.data        34624                       # Number of bytes read from this memory
system.mem_ctrls.bytes_read::.switch_cpus1.inst        12672                       # Number of bytes read from this memory
system.mem_ctrls.bytes_read::.switch_cpus1.data        78784                       # Number of bytes read from this memory
system.mem_ctrls.bytes_read::.switch_cpus_10.inst        12608                       # Number of bytes read from this memory
system.mem_ctrls.bytes_read::.switch_cpus_10.data         8064                       # Number of bytes read from this memory
system.mem_ctrls.bytes_read::.switch_cpus_11.inst         5568                       # Number of bytes read from this memory
system.mem_ctrls.bytes_read::.switch_cpus_11.data      1200896                       # Number of bytes read from this memory
system.mem_ctrls.bytes_read::total            1375808                       # Number of bytes read from this memory
system.mem_ctrls.bytes_inst_read::.cpu0.inst           64                       # Number of instructions bytes read from this memory
system.mem_ctrls.bytes_inst_read::.cpu1.inst           64                       # Number of instructions bytes read from this memory
system.mem_ctrls.bytes_inst_read::.switch_cpus0.inst        22336                       # Number of instructions bytes read from this memory
system.mem_ctrls.bytes_inst_read::.switch_cpus1.inst        12672                       # Number of instructions bytes read from this memory
system.mem_ctrls.bytes_inst_read::.switch_cpus_10.inst        12608                       # Number of instructions bytes read from this memory
system.mem_ctrls.bytes_inst_read::.switch_cpus_11.inst         5568                       # Number of instructions bytes read from this memory
system.mem_ctrls.bytes_inst_read::total         53312                       # Number of instructions bytes read from this memory
system.mem_ctrls.num_reads::.cpu0.inst              1                       # Number of read requests responded to by this memory
system.mem_ctrls.num_reads::.cpu0.data              1                       # Number of read requests responded to by this memory
system.mem_ctrls.num_reads::.cpu1.inst              1                       # Number of read requests responded to by this memory
system.mem_ctrls.num_reads::.cpu1.data              1                       # Number of read requests responded to by this memory
system.mem_ctrls.num_reads::.switch_cpus0.inst          349                       # Number of read requests responded to by this memory
system.mem_ctrls.num_reads::.switch_cpus0.data          541                       # Number of read requests responded to by this memory
system.mem_ctrls.num_reads::.switch_cpus1.inst          198                       # Number of read requests responded to by this memory
system.mem_ctrls.num_reads::.switch_cpus1.data         1231                       # Number of read requests responded to by this memory
system.mem_ctrls.num_reads::.switch_cpus_10.inst          197                       # Number of read requests responded to by this memory
system.mem_ctrls.num_reads::.switch_cpus_10.data          126                       # Number of read requests responded to by this memory
system.mem_ctrls.num_reads::.switch_cpus_11.inst           87                       # Number of read requests responded to by this memory
system.mem_ctrls.num_reads::.switch_cpus_11.data        18764                       # Number of read requests responded to by this memory
system.mem_ctrls.num_reads::total               21497                       # Number of read requests responded to by this memory
system.mem_ctrls.bw_read::.cpu0.inst             3373                       # Total read bandwidth from this memory (bytes/s)
system.mem_ctrls.bw_read::.cpu0.data             3373                       # Total read bandwidth from this memory (bytes/s)
system.mem_ctrls.bw_read::.cpu1.inst             3373                       # Total read bandwidth from this memory (bytes/s)
system.mem_ctrls.bw_read::.cpu1.data             3373                       # Total read bandwidth from this memory (bytes/s)
system.mem_ctrls.bw_read::.switch_cpus0.inst      1177129                       # Total read bandwidth from this memory (bytes/s)
system.mem_ctrls.bw_read::.switch_cpus0.data      1824719                       # Total read bandwidth from this memory (bytes/s)
system.mem_ctrls.bw_read::.switch_cpus1.inst       667827                       # Total read bandwidth from this memory (bytes/s)
system.mem_ctrls.bw_read::.switch_cpus1.data      4151994                       # Total read bandwidth from this memory (bytes/s)
system.mem_ctrls.bw_read::.switch_cpus_10.inst       664454                       # Total read bandwidth from this memory (bytes/s)
system.mem_ctrls.bw_read::.switch_cpus_10.data       424981                       # Total read bandwidth from this memory (bytes/s)
system.mem_ctrls.bw_read::.switch_cpus_11.inst       293439                       # Total read bandwidth from this memory (bytes/s)
system.mem_ctrls.bw_read::.switch_cpus_11.data     63288394                       # Total read bandwidth from this memory (bytes/s)
system.mem_ctrls.bw_read::total              72506427                       # Total read bandwidth from this memory (bytes/s)
system.mem_ctrls.bw_inst_read::.cpu0.inst         3373                       # Instruction read bandwidth from this memory (bytes/s)
system.mem_ctrls.bw_inst_read::.cpu1.inst         3373                       # Instruction read bandwidth from this memory (bytes/s)
system.mem_ctrls.bw_inst_read::.switch_cpus0.inst      1177129                       # Instruction read bandwidth from this memory (bytes/s)
system.mem_ctrls.bw_inst_read::.switch_cpus1.inst       667827                       # Instruction read bandwidth from this memory (bytes/s)
system.mem_ctrls.bw_inst_read::.switch_cpus_10.inst       664454                       # Instruction read bandwidth from this memory (bytes/s)
system.mem_ctrls.bw_inst_read::.switch_cpus_11.inst       293439                       # Instruction read bandwidth from this memory (bytes/s)
system.mem_ctrls.bw_inst_read::total          2809595                       # Instruction read bandwidth from this memory (bytes/s)
system.mem_ctrls.bw_total::.cpu0.inst            3373                       # Total bandwidth to/from this memory (bytes/s)
system.mem_ctrls.bw_total::.cpu0.data            3373                       # Total bandwidth to/from this memory (bytes/s)
system.mem_ctrls.bw_total::.cpu1.inst            3373                       # Total bandwidth to/from this memory (bytes/s)
system.mem_ctrls.bw_total::.cpu1.data            3373                       # Total bandwidth to/from this memory (bytes/s)
system.mem_ctrls.bw_total::.switch_cpus0.inst      1177129                       # Total bandwidth to/from this memory (bytes/s)
system.mem_ctrls.bw_total::.switch_cpus0.data      1824719                       # Total bandwidth to/from this memory (bytes/s)
system.mem_ctrls.bw_total::.switch_cpus1.inst       667827                       # Total bandwidth to/from this memory (bytes/s)
system.mem_ctrls.bw_total::.switch_cpus1.data      4151994                       # Total bandwidth to/from this memory (bytes/s)
system.mem_ctrls.bw_total::.switch_cpus_10.inst       664454                       # Total bandwidth to/from this memory (bytes/s)
system.mem_ctrls.bw_total::.switch_cpus_10.data       424981                       # Total bandwidth to/from this memory (bytes/s)
system.mem_ctrls.bw_total::.switch_cpus_11.inst       293439                       # Total bandwidth to/from this memory (bytes/s)
system.mem_ctrls.bw_total::.switch_cpus_11.data     63288394                       # Total bandwidth to/from this memory (bytes/s)
system.mem_ctrls.bw_total::total             72506427                       # Total bandwidth to/from this memory (bytes/s)
system.cpu_clk_domain.clock                       417                       # Clock period in ticks

---------- End Simulation Statistics   ----------
