
---------- Begin Simulation Statistics ----------
final_tick                               1321365856020                       # Number of ticks from beginning of simulation (restored from checkpoints and never reset)
host_inst_rate                                 121774                       # Simulator instruction rate (inst/s)
host_mem_usage                                4578224                       # Number of bytes of host memory used
host_op_rate                                   246506                       # Simulator op (including micro ops) rate (op/s)
host_seconds                                   429.77                       # Real time elapsed on the host
host_tick_rate                               65183836                       # Simulator tick rate (ticks/s)
sim_freq                                 1000000000000                       # Frequency of simulated ticks
sim_insts                                    52334963                       # Number of instructions simulated
sim_ops                                     105941111                       # Number of ops (including micro ops) simulated
sim_seconds                                  0.028014                       # Number of seconds simulated
sim_ticks                                 28014148404                       # Number of ticks simulated
system.cpu0.Branches                                1                       # Number of branches fetched
system.cpu0.committedInsts                          2                       # Number of instructions committed
system.cpu0.committedOps                            4                       # Number of ops (including micro ops) committed
system.cpu0.dcache.prefetcher.num_hwpf_issued          102                       # number of hwpf issued
system.cpu0.dcache.prefetcher.pfBufferHit          221                       # number of redundant prefetches already in prefetch queue
system.cpu0.dcache.prefetcher.pfIdentified          442                       # number of prefetch candidates identified
system.cpu0.dcache.prefetcher.pfInCache             0                       # number of redundant prefetches already in cache/mshr dropped
system.cpu0.dcache.prefetcher.pfRemovedFull            0                       # number of prefetches dropped due to prefetch queue size
system.cpu0.dcache.prefetcher.pfSpanPage           54                       # number of prefetches that crossed the page
system.cpu0.dtb.rdAccesses                          0                       # TLB accesses on read requests
system.cpu0.dtb.rdMisses                            0                       # TLB misses on read requests
system.cpu0.dtb.wrAccesses                          0                       # TLB accesses on write requests
system.cpu0.dtb.wrMisses                            0                       # TLB misses on write requests
system.cpu0.idle_fraction                           0                       # Percentage of idle cycles
system.cpu0.itb.rdAccesses                          0                       # TLB accesses on read requests
system.cpu0.itb.rdMisses                            0                       # TLB misses on read requests
system.cpu0.itb.wrAccesses                          2                       # TLB accesses on write requests
system.cpu0.itb.wrMisses                            0                       # TLB misses on write requests
system.cpu0.not_idle_fraction                       1                       # Percentage of non-idle cycles
system.cpu0.numCycles                               4                       # number of cpu cycles simulated
system.cpu0.numWorkItemsCompleted                   0                       # number of work items this cpu completed
system.cpu0.numWorkItemsStarted                     0                       # number of work items this cpu started
system.cpu0.num_busy_cycles                         4                       # Number of busy cycles
system.cpu0.num_cc_register_reads                   6                       # number of times the CC registers were read
system.cpu0.num_cc_register_writes                  2                       # number of times the CC registers were written
system.cpu0.num_conditional_control_insts            1                       # number of instructions that are conditional controls
system.cpu0.num_fp_alu_accesses                     0                       # Number of float alu accesses
system.cpu0.num_fp_insts                            0                       # number of float instructions
system.cpu0.num_fp_register_reads                   0                       # number of times the floating registers were read
system.cpu0.num_fp_register_writes                  0                       # number of times the floating registers were written
system.cpu0.num_func_calls                          0                       # number of times a function call or return occured
system.cpu0.num_idle_cycles                         0                       # Number of idle cycles
system.cpu0.num_int_alu_accesses                    4                       # Number of integer alu accesses
system.cpu0.num_int_insts                           4                       # number of integer instructions
system.cpu0.num_int_register_reads                  6                       # number of times the integer registers were read
system.cpu0.num_int_register_writes                 3                       # number of times the integer registers were written
system.cpu0.num_load_insts                          0                       # Number of load instructions
system.cpu0.num_mem_refs                            0                       # number of memory refs
system.cpu0.num_store_insts                         0                       # Number of store instructions
system.cpu0.num_vec_alu_accesses                    0                       # Number of vector alu accesses
system.cpu0.num_vec_insts                           0                       # number of vector instructions
system.cpu0.num_vec_register_reads                  0                       # number of times the vector registers were read
system.cpu0.num_vec_register_writes                 0                       # number of times the vector registers were written
system.cpu0.op_class::No_OpClass                    0      0.00%      0.00% # Class of executed instruction
system.cpu0.op_class::IntAlu                        4    100.00%    100.00% # Class of executed instruction
system.cpu0.op_class::IntMult                       0      0.00%    100.00% # Class of executed instruction
system.cpu0.op_class::IntDiv                        0      0.00%    100.00% # Class of executed instruction
system.cpu0.op_class::FloatAdd                      0      0.00%    100.00% # Class of executed instruction
system.cpu0.op_class::FloatCmp                      0      0.00%    100.00% # Class of executed instruction
system.cpu0.op_class::FloatCvt                      0      0.00%    100.00% # Class of executed instruction
system.cpu0.op_class::FloatMult                     0      0.00%    100.00% # Class of executed instruction
system.cpu0.op_class::FloatMultAcc                  0      0.00%    100.00% # Class of executed instruction
system.cpu0.op_class::FloatDiv                      0      0.00%    100.00% # Class of executed instruction
system.cpu0.op_class::FloatMisc                     0      0.00%    100.00% # Class of executed instruction
system.cpu0.op_class::FloatSqrt                     0      0.00%    100.00% # Class of executed instruction
system.cpu0.op_class::SimdAdd                       0      0.00%    100.00% # Class of executed instruction
system.cpu0.op_class::SimdAddAcc                    0      0.00%    100.00% # Class of executed instruction
system.cpu0.op_class::SimdAlu                       0      0.00%    100.00% # Class of executed instruction
system.cpu0.op_class::SimdCmp                       0      0.00%    100.00% # Class of executed instruction
system.cpu0.op_class::SimdCvt                       0      0.00%    100.00% # Class of executed instruction
system.cpu0.op_class::SimdMisc                      0      0.00%    100.00% # Class of executed instruction
system.cpu0.op_class::SimdMult                      0      0.00%    100.00% # Class of executed instruction
system.cpu0.op_class::SimdMultAcc                   0      0.00%    100.00% # Class of executed instruction
system.cpu0.op_class::SimdShift                     0      0.00%    100.00% # Class of executed instruction
system.cpu0.op_class::SimdShiftAcc                  0      0.00%    100.00% # Class of executed instruction
system.cpu0.op_class::SimdDiv                       0      0.00%    100.00% # Class of executed instruction
system.cpu0.op_class::SimdSqrt                      0      0.00%    100.00% # Class of executed instruction
system.cpu0.op_class::SimdFloatAdd                  0      0.00%    100.00% # Class of executed instruction
system.cpu0.op_class::SimdFloatAlu                  0      0.00%    100.00% # Class of executed instruction
system.cpu0.op_class::SimdFloatCmp                  0      0.00%    100.00% # Class of executed instruction
system.cpu0.op_class::SimdFloatCvt                  0      0.00%    100.00% # Class of executed instruction
system.cpu0.op_class::SimdFloatDiv                  0      0.00%    100.00% # Class of executed instruction
system.cpu0.op_class::SimdFloatMisc                 0      0.00%    100.00% # Class of executed instruction
system.cpu0.op_class::SimdFloatMult                 0      0.00%    100.00% # Class of executed instruction
system.cpu0.op_class::SimdFloatMultAcc              0      0.00%    100.00% # Class of executed instruction
system.cpu0.op_class::SimdFloatSqrt                 0      0.00%    100.00% # Class of executed instruction
system.cpu0.op_class::SimdReduceAdd                 0      0.00%    100.00% # Class of executed instruction
system.cpu0.op_class::SimdReduceAlu                 0      0.00%    100.00% # Class of executed instruction
system.cpu0.op_class::SimdReduceCmp                 0      0.00%    100.00% # Class of executed instruction
system.cpu0.op_class::SimdFloatReduceAdd            0      0.00%    100.00% # Class of executed instruction
system.cpu0.op_class::SimdFloatReduceCmp            0      0.00%    100.00% # Class of executed instruction
system.cpu0.op_class::SimdAes                       0      0.00%    100.00% # Class of executed instruction
system.cpu0.op_class::SimdAesMix                    0      0.00%    100.00% # Class of executed instruction
system.cpu0.op_class::SimdSha1Hash                  0      0.00%    100.00% # Class of executed instruction
system.cpu0.op_class::SimdSha1Hash2                 0      0.00%    100.00% # Class of executed instruction
system.cpu0.op_class::SimdSha256Hash                0      0.00%    100.00% # Class of executed instruction
system.cpu0.op_class::SimdSha256Hash2               0      0.00%    100.00% # Class of executed instruction
system.cpu0.op_class::SimdShaSigma2                 0      0.00%    100.00% # Class of executed instruction
system.cpu0.op_class::SimdShaSigma3                 0      0.00%    100.00% # Class of executed instruction
system.cpu0.op_class::SimdPredAlu                   0      0.00%    100.00% # Class of executed instruction
system.cpu0.op_class::MemRead                       0      0.00%    100.00% # Class of executed instruction
system.cpu0.op_class::MemWrite                      0      0.00%    100.00% # Class of executed instruction
system.cpu0.op_class::FloatMemRead                  0      0.00%    100.00% # Class of executed instruction
system.cpu0.op_class::FloatMemWrite                 0      0.00%    100.00% # Class of executed instruction
system.cpu0.op_class::IprAccess                     0      0.00%    100.00% # Class of executed instruction
system.cpu0.op_class::InstPrefetch                  0      0.00%    100.00% # Class of executed instruction
system.cpu0.op_class::total                         4                       # Class of executed instruction
system.cpu0.toL2Bus.snoop_filter.hit_multi_requests            5                       # Number of requests hitting in the snoop filter with multiple (>1) holders of the requested data.
system.cpu0.toL2Bus.snoop_filter.hit_multi_snoops            0                       # Number of snoops hitting in the snoop filter with multiple (>1) holders of the requested data.
system.cpu0.toL2Bus.snoop_filter.hit_single_requests         9128                       # Number of requests hitting in the snoop filter with a single holder of the requested data.
system.cpu0.toL2Bus.snoop_filter.hit_single_snoops            0                       # Number of snoops hitting in the snoop filter with a single holder of the requested data.
system.cpu0.toL2Bus.snoop_filter.tot_requests        19255                       # Total number of requests made to the snoop filter.
system.cpu0.toL2Bus.snoop_filter.tot_snoops            0                       # Total number of snoops made to the snoop filter.
system.cpu0.toL3Bus.snoop_filter.hit_multi_requests            0                       # Number of requests hitting in the snoop filter with multiple (>1) holders of the requested data.
system.cpu0.toL3Bus.snoop_filter.hit_multi_snoops            0                       # Number of snoops hitting in the snoop filter with multiple (>1) holders of the requested data.
system.cpu0.toL3Bus.snoop_filter.hit_single_requests            0                       # Number of requests hitting in the snoop filter with a single holder of the requested data.
system.cpu0.toL3Bus.snoop_filter.hit_single_snoops            0                       # Number of snoops hitting in the snoop filter with a single holder of the requested data.
system.cpu0.toL3Bus.snoop_filter.tot_requests         1553                       # Total number of requests made to the snoop filter.
system.cpu0.toL3Bus.snoop_filter.tot_snoops            0                       # Total number of snoops made to the snoop filter.
system.cpu0.workload.numSyscalls                    6                       # Number of system calls
system.cpu1.Branches                                1                       # Number of branches fetched
system.cpu1.committedInsts                          1                       # Number of instructions committed
system.cpu1.committedOps                            5                       # Number of ops (including micro ops) committed
system.cpu1.dcache.prefetcher.num_hwpf_issued          167                       # number of hwpf issued
system.cpu1.dcache.prefetcher.pfBufferHit            0                       # number of redundant prefetches already in prefetch queue
system.cpu1.dcache.prefetcher.pfIdentified          167                       # number of prefetch candidates identified
system.cpu1.dcache.prefetcher.pfInCache             0                       # number of redundant prefetches already in cache/mshr dropped
system.cpu1.dcache.prefetcher.pfRemovedFull            0                       # number of prefetches dropped due to prefetch queue size
system.cpu1.dcache.prefetcher.pfSpanPage            1                       # number of prefetches that crossed the page
system.cpu1.dtb.rdAccesses                          0                       # TLB accesses on read requests
system.cpu1.dtb.rdMisses                            0                       # TLB misses on read requests
system.cpu1.dtb.wrAccesses                          1                       # TLB accesses on write requests
system.cpu1.dtb.wrMisses                            0                       # TLB misses on write requests
system.cpu1.idle_fraction                           0                       # Percentage of idle cycles
system.cpu1.itb.rdAccesses                          0                       # TLB accesses on read requests
system.cpu1.itb.rdMisses                            0                       # TLB misses on read requests
system.cpu1.itb.wrAccesses                          2                       # TLB accesses on write requests
system.cpu1.itb.wrMisses                            0                       # TLB misses on write requests
system.cpu1.not_idle_fraction                       1                       # Percentage of non-idle cycles
system.cpu1.numCycles                               6                       # number of cpu cycles simulated
system.cpu1.numWorkItemsCompleted                   0                       # number of work items this cpu completed
system.cpu1.numWorkItemsStarted                     0                       # number of work items this cpu started
system.cpu1.num_busy_cycles                         6                       # Number of busy cycles
system.cpu1.num_conditional_control_insts            0                       # number of instructions that are conditional controls
system.cpu1.num_fp_alu_accesses                     0                       # Number of float alu accesses
system.cpu1.num_fp_insts                            0                       # number of float instructions
system.cpu1.num_fp_register_reads                   0                       # number of times the floating registers were read
system.cpu1.num_fp_register_writes                  0                       # number of times the floating registers were written
system.cpu1.num_func_calls                          1                       # number of times a function call or return occured
system.cpu1.num_idle_cycles                         0                       # Number of idle cycles
system.cpu1.num_int_alu_accesses                    5                       # Number of integer alu accesses
system.cpu1.num_int_insts                           5                       # number of integer instructions
system.cpu1.num_int_register_reads                  9                       # number of times the integer registers were read
system.cpu1.num_int_register_writes                 3                       # number of times the integer registers were written
system.cpu1.num_load_insts                          0                       # Number of load instructions
system.cpu1.num_mem_refs                            1                       # number of memory refs
system.cpu1.num_store_insts                         1                       # Number of store instructions
system.cpu1.num_vec_alu_accesses                    0                       # Number of vector alu accesses
system.cpu1.num_vec_insts                           0                       # number of vector instructions
system.cpu1.num_vec_register_reads                  0                       # number of times the vector registers were read
system.cpu1.num_vec_register_writes                 0                       # number of times the vector registers were written
system.cpu1.op_class::No_OpClass                    0      0.00%      0.00% # Class of executed instruction
system.cpu1.op_class::IntAlu                        4     80.00%     80.00% # Class of executed instruction
system.cpu1.op_class::IntMult                       0      0.00%     80.00% # Class of executed instruction
system.cpu1.op_class::IntDiv                        0      0.00%     80.00% # Class of executed instruction
system.cpu1.op_class::FloatAdd                      0      0.00%     80.00% # Class of executed instruction
system.cpu1.op_class::FloatCmp                      0      0.00%     80.00% # Class of executed instruction
system.cpu1.op_class::FloatCvt                      0      0.00%     80.00% # Class of executed instruction
system.cpu1.op_class::FloatMult                     0      0.00%     80.00% # Class of executed instruction
system.cpu1.op_class::FloatMultAcc                  0      0.00%     80.00% # Class of executed instruction
system.cpu1.op_class::FloatDiv                      0      0.00%     80.00% # Class of executed instruction
system.cpu1.op_class::FloatMisc                     0      0.00%     80.00% # Class of executed instruction
system.cpu1.op_class::FloatSqrt                     0      0.00%     80.00% # Class of executed instruction
system.cpu1.op_class::SimdAdd                       0      0.00%     80.00% # Class of executed instruction
system.cpu1.op_class::SimdAddAcc                    0      0.00%     80.00% # Class of executed instruction
system.cpu1.op_class::SimdAlu                       0      0.00%     80.00% # Class of executed instruction
system.cpu1.op_class::SimdCmp                       0      0.00%     80.00% # Class of executed instruction
system.cpu1.op_class::SimdCvt                       0      0.00%     80.00% # Class of executed instruction
system.cpu1.op_class::SimdMisc                      0      0.00%     80.00% # Class of executed instruction
system.cpu1.op_class::SimdMult                      0      0.00%     80.00% # Class of executed instruction
system.cpu1.op_class::SimdMultAcc                   0      0.00%     80.00% # Class of executed instruction
system.cpu1.op_class::SimdShift                     0      0.00%     80.00% # Class of executed instruction
system.cpu1.op_class::SimdShiftAcc                  0      0.00%     80.00% # Class of executed instruction
system.cpu1.op_class::SimdDiv                       0      0.00%     80.00% # Class of executed instruction
system.cpu1.op_class::SimdSqrt                      0      0.00%     80.00% # Class of executed instruction
system.cpu1.op_class::SimdFloatAdd                  0      0.00%     80.00% # Class of executed instruction
system.cpu1.op_class::SimdFloatAlu                  0      0.00%     80.00% # Class of executed instruction
system.cpu1.op_class::SimdFloatCmp                  0      0.00%     80.00% # Class of executed instruction
system.cpu1.op_class::SimdFloatCvt                  0      0.00%     80.00% # Class of executed instruction
system.cpu1.op_class::SimdFloatDiv                  0      0.00%     80.00% # Class of executed instruction
system.cpu1.op_class::SimdFloatMisc                 0      0.00%     80.00% # Class of executed instruction
system.cpu1.op_class::SimdFloatMult                 0      0.00%     80.00% # Class of executed instruction
system.cpu1.op_class::SimdFloatMultAcc              0      0.00%     80.00% # Class of executed instruction
system.cpu1.op_class::SimdFloatSqrt                 0      0.00%     80.00% # Class of executed instruction
system.cpu1.op_class::SimdReduceAdd                 0      0.00%     80.00% # Class of executed instruction
system.cpu1.op_class::SimdReduceAlu                 0      0.00%     80.00% # Class of executed instruction
system.cpu1.op_class::SimdReduceCmp                 0      0.00%     80.00% # Class of executed instruction
system.cpu1.op_class::SimdFloatReduceAdd            0      0.00%     80.00% # Class of executed instruction
system.cpu1.op_class::SimdFloatReduceCmp            0      0.00%     80.00% # Class of executed instruction
system.cpu1.op_class::SimdAes                       0      0.00%     80.00% # Class of executed instruction
system.cpu1.op_class::SimdAesMix                    0      0.00%     80.00% # Class of executed instruction
system.cpu1.op_class::SimdSha1Hash                  0      0.00%     80.00% # Class of executed instruction
system.cpu1.op_class::SimdSha1Hash2                 0      0.00%     80.00% # Class of executed instruction
system.cpu1.op_class::SimdSha256Hash                0      0.00%     80.00% # Class of executed instruction
system.cpu1.op_class::SimdSha256Hash2               0      0.00%     80.00% # Class of executed instruction
system.cpu1.op_class::SimdShaSigma2                 0      0.00%     80.00% # Class of executed instruction
system.cpu1.op_class::SimdShaSigma3                 0      0.00%     80.00% # Class of executed instruction
system.cpu1.op_class::SimdPredAlu                   0      0.00%     80.00% # Class of executed instruction
system.cpu1.op_class::MemRead                       0      0.00%     80.00% # Class of executed instruction
system.cpu1.op_class::MemWrite                      1     20.00%    100.00% # Class of executed instruction
system.cpu1.op_class::FloatMemRead                  0      0.00%    100.00% # Class of executed instruction
system.cpu1.op_class::FloatMemWrite                 0      0.00%    100.00% # Class of executed instruction
system.cpu1.op_class::IprAccess                     0      0.00%    100.00% # Class of executed instruction
system.cpu1.op_class::InstPrefetch                  0      0.00%    100.00% # Class of executed instruction
system.cpu1.op_class::total                         5                       # Class of executed instruction
system.cpu1.toL2Bus.snoop_filter.hit_multi_requests           48                       # Number of requests hitting in the snoop filter with multiple (>1) holders of the requested data.
system.cpu1.toL2Bus.snoop_filter.hit_multi_snoops            0                       # Number of snoops hitting in the snoop filter with multiple (>1) holders of the requested data.
system.cpu1.toL2Bus.snoop_filter.hit_single_requests        56335                       # Number of requests hitting in the snoop filter with a single holder of the requested data.
system.cpu1.toL2Bus.snoop_filter.hit_single_snoops          504                       # Number of snoops hitting in the snoop filter with a single holder of the requested data.
system.cpu1.toL2Bus.snoop_filter.tot_requests       113469                       # Total number of requests made to the snoop filter.
system.cpu1.toL2Bus.snoop_filter.tot_snoops          504                       # Total number of snoops made to the snoop filter.
system.cpu1.toL3Bus.snoop_filter.hit_multi_requests            0                       # Number of requests hitting in the snoop filter with multiple (>1) holders of the requested data.
system.cpu1.toL3Bus.snoop_filter.hit_multi_snoops            0                       # Number of snoops hitting in the snoop filter with multiple (>1) holders of the requested data.
system.cpu1.toL3Bus.snoop_filter.hit_single_requests        25907                       # Number of requests hitting in the snoop filter with a single holder of the requested data.
system.cpu1.toL3Bus.snoop_filter.hit_single_snoops          241                       # Number of snoops hitting in the snoop filter with a single holder of the requested data.
system.cpu1.toL3Bus.snoop_filter.tot_requests        56232                       # Total number of requests made to the snoop filter.
system.cpu1.toL3Bus.snoop_filter.tot_snoops          241                       # Total number of snoops made to the snoop filter.
system.cpu1.workload.numSyscalls                16966                       # Number of system calls
system.membus.snoop_filter.hit_multi_requests            0                       # Number of requests hitting in the snoop filter with multiple (>1) holders of the requested data.
system.membus.snoop_filter.hit_multi_snoops            0                       # Number of snoops hitting in the snoop filter with multiple (>1) holders of the requested data.
system.membus.snoop_filter.hit_single_requests          613                       # Number of requests hitting in the snoop filter with a single holder of the requested data.
system.membus.snoop_filter.hit_single_snoops            0                       # Number of snoops hitting in the snoop filter with a single holder of the requested data.
system.membus.snoop_filter.tot_requests         32470                       # Total number of requests made to the snoop filter.
system.membus.snoop_filter.tot_snoops               0                       # Total number of snoops made to the snoop filter.
system.switch_cpus0.Branches                   243471                       # Number of branches fetched
system.switch_cpus0.committedInsts            1000001                       # Number of instructions committed
system.switch_cpus0.committedOps              1964282                       # Number of ops (including micro ops) committed
system.switch_cpus0.dtb.rdAccesses             258686                       # TLB accesses on read requests
system.switch_cpus0.dtb.rdMisses                   28                       # TLB misses on read requests
system.switch_cpus0.dtb.wrAccesses             164196                       # TLB accesses on write requests
system.switch_cpus0.dtb.wrMisses                    2                       # TLB misses on write requests
system.switch_cpus0.idle_fraction            0.000000                       # Percentage of idle cycles
system.switch_cpus0.itb.rdAccesses                  0                       # TLB accesses on read requests
system.switch_cpus0.itb.rdMisses                    0                       # TLB misses on read requests
system.switch_cpus0.itb.wrAccesses            1341162                       # TLB accesses on write requests
system.switch_cpus0.itb.wrMisses                   36                       # TLB misses on write requests
system.switch_cpus0.not_idle_fraction        1.000000                       # Percentage of non-idle cycles
system.switch_cpus0.numCycles                 5451205                       # number of cpu cycles simulated
system.switch_cpus0.numWorkItemsCompleted            0                       # number of work items this cpu completed
system.switch_cpus0.numWorkItemsStarted             0                       # number of work items this cpu started
system.switch_cpus0.num_busy_cycles      5451204.513142                       # Number of busy cycles
system.switch_cpus0.num_cc_register_reads      1108773                       # number of times the CC registers were read
system.switch_cpus0.num_cc_register_writes       600380                       # number of times the CC registers were written
system.switch_cpus0.num_conditional_control_insts       166239                       # number of instructions that are conditional controls
system.switch_cpus0.num_fp_alu_accesses         26744                       # Number of float alu accesses
system.switch_cpus0.num_fp_insts                26744                       # number of float instructions
system.switch_cpus0.num_fp_register_reads        26836                       # number of times the floating registers were read
system.switch_cpus0.num_fp_register_writes        10468                       # number of times the floating registers were written
system.switch_cpus0.num_func_calls              52674                       # number of times a function call or return occured
system.switch_cpus0.num_idle_cycles          0.486858                       # Number of idle cycles
system.switch_cpus0.num_int_alu_accesses      1946738                       # Number of integer alu accesses
system.switch_cpus0.num_int_insts             1946738                       # number of integer instructions
system.switch_cpus0.num_int_register_reads      3840519                       # number of times the integer registers were read
system.switch_cpus0.num_int_register_writes      1561119                       # number of times the integer registers were written
system.switch_cpus0.num_load_insts             258128                       # Number of load instructions
system.switch_cpus0.num_mem_refs               422138                       # number of memory refs
system.switch_cpus0.num_store_insts            164010                       # Number of store instructions
system.switch_cpus0.num_vec_alu_accesses            0                       # Number of vector alu accesses
system.switch_cpus0.num_vec_insts                   0                       # number of vector instructions
system.switch_cpus0.num_vec_register_reads            0                       # number of times the vector registers were read
system.switch_cpus0.num_vec_register_writes            0                       # number of times the vector registers were written
system.switch_cpus0.op_class::No_OpClass        10944      0.56%      0.56% # Class of executed instruction
system.switch_cpus0.op_class::IntAlu          1515533     77.15%     77.71% # Class of executed instruction
system.switch_cpus0.op_class::IntMult            1220      0.06%     77.77% # Class of executed instruction
system.switch_cpus0.op_class::IntDiv             7847      0.40%     78.17% # Class of executed instruction
system.switch_cpus0.op_class::FloatAdd           1320      0.07%     78.24% # Class of executed instruction
system.switch_cpus0.op_class::FloatCmp              0      0.00%     78.24% # Class of executed instruction
system.switch_cpus0.op_class::FloatCvt              0      0.00%     78.24% # Class of executed instruction
system.switch_cpus0.op_class::FloatMult             0      0.00%     78.24% # Class of executed instruction
system.switch_cpus0.op_class::FloatMultAcc            0      0.00%     78.24% # Class of executed instruction
system.switch_cpus0.op_class::FloatDiv              0      0.00%     78.24% # Class of executed instruction
system.switch_cpus0.op_class::FloatMisc             0      0.00%     78.24% # Class of executed instruction
system.switch_cpus0.op_class::FloatSqrt             0      0.00%     78.24% # Class of executed instruction
system.switch_cpus0.op_class::SimdAdd               0      0.00%     78.24% # Class of executed instruction
system.switch_cpus0.op_class::SimdAddAcc            0      0.00%     78.24% # Class of executed instruction
system.switch_cpus0.op_class::SimdAlu            2112      0.11%     78.35% # Class of executed instruction
system.switch_cpus0.op_class::SimdCmp               0      0.00%     78.35% # Class of executed instruction
system.switch_cpus0.op_class::SimdCvt             528      0.03%     78.37% # Class of executed instruction
system.switch_cpus0.op_class::SimdMisc           2376      0.12%     78.50% # Class of executed instruction
system.switch_cpus0.op_class::SimdMult              0      0.00%     78.50% # Class of executed instruction
system.switch_cpus0.op_class::SimdMultAcc            0      0.00%     78.50% # Class of executed instruction
system.switch_cpus0.op_class::SimdShift             0      0.00%     78.50% # Class of executed instruction
system.switch_cpus0.op_class::SimdShiftAcc            0      0.00%     78.50% # Class of executed instruction
system.switch_cpus0.op_class::SimdDiv               0      0.00%     78.50% # Class of executed instruction
system.switch_cpus0.op_class::SimdSqrt              0      0.00%     78.50% # Class of executed instruction
system.switch_cpus0.op_class::SimdFloatAdd          264      0.01%     78.51% # Class of executed instruction
system.switch_cpus0.op_class::SimdFloatAlu            0      0.00%     78.51% # Class of executed instruction
system.switch_cpus0.op_class::SimdFloatCmp            0      0.00%     78.51% # Class of executed instruction
system.switch_cpus0.op_class::SimdFloatCvt            0      0.00%     78.51% # Class of executed instruction
system.switch_cpus0.op_class::SimdFloatDiv            0      0.00%     78.51% # Class of executed instruction
system.switch_cpus0.op_class::SimdFloatMisc            0      0.00%     78.51% # Class of executed instruction
system.switch_cpus0.op_class::SimdFloatMult            0      0.00%     78.51% # Class of executed instruction
system.switch_cpus0.op_class::SimdFloatMultAcc            0      0.00%     78.51% # Class of executed instruction
system.switch_cpus0.op_class::SimdFloatSqrt            0      0.00%     78.51% # Class of executed instruction
system.switch_cpus0.op_class::SimdReduceAdd            0      0.00%     78.51% # Class of executed instruction
system.switch_cpus0.op_class::SimdReduceAlu            0      0.00%     78.51% # Class of executed instruction
system.switch_cpus0.op_class::SimdReduceCmp            0      0.00%     78.51% # Class of executed instruction
system.switch_cpus0.op_class::SimdFloatReduceAdd            0      0.00%     78.51% # Class of executed instruction
system.switch_cpus0.op_class::SimdFloatReduceCmp            0      0.00%     78.51% # Class of executed instruction
system.switch_cpus0.op_class::SimdAes               0      0.00%     78.51% # Class of executed instruction
system.switch_cpus0.op_class::SimdAesMix            0      0.00%     78.51% # Class of executed instruction
system.switch_cpus0.op_class::SimdSha1Hash            0      0.00%     78.51% # Class of executed instruction
system.switch_cpus0.op_class::SimdSha1Hash2            0      0.00%     78.51% # Class of executed instruction
system.switch_cpus0.op_class::SimdSha256Hash            0      0.00%     78.51% # Class of executed instruction
system.switch_cpus0.op_class::SimdSha256Hash2            0      0.00%     78.51% # Class of executed instruction
system.switch_cpus0.op_class::SimdShaSigma2            0      0.00%     78.51% # Class of executed instruction
system.switch_cpus0.op_class::SimdShaSigma3            0      0.00%     78.51% # Class of executed instruction
system.switch_cpus0.op_class::SimdPredAlu            0      0.00%     78.51% # Class of executed instruction
system.switch_cpus0.op_class::MemRead          253996     12.93%     91.44% # Class of executed instruction
system.switch_cpus0.op_class::MemWrite         148262      7.55%     98.99% # Class of executed instruction
system.switch_cpus0.op_class::FloatMemRead         4132      0.21%     99.20% # Class of executed instruction
system.switch_cpus0.op_class::FloatMemWrite        15748      0.80%    100.00% # Class of executed instruction
system.switch_cpus0.op_class::IprAccess             0      0.00%    100.00% # Class of executed instruction
system.switch_cpus0.op_class::InstPrefetch            0      0.00%    100.00% # Class of executed instruction
system.switch_cpus0.op_class::total           1964282                       # Class of executed instruction
system.switch_cpus1.Branches                   209209                       # Number of branches fetched
system.switch_cpus1.committedInsts             930640                       # Number of instructions committed
system.switch_cpus1.committedOps              1883398                       # Number of ops (including micro ops) committed
system.switch_cpus1.dtb.rdAccesses             271748                       # TLB accesses on read requests
system.switch_cpus1.dtb.rdMisses                   40                       # TLB misses on read requests
system.switch_cpus1.dtb.wrAccesses             198492                       # TLB accesses on write requests
system.switch_cpus1.dtb.wrMisses                    3                       # TLB misses on write requests
system.switch_cpus1.idle_fraction            0.000000                       # Percentage of idle cycles
system.switch_cpus1.itb.rdAccesses                  0                       # TLB accesses on read requests
system.switch_cpus1.itb.rdMisses                    0                       # TLB misses on read requests
system.switch_cpus1.itb.wrAccesses            1179934                       # TLB accesses on write requests
system.switch_cpus1.itb.wrMisses                   27                       # TLB misses on write requests
system.switch_cpus1.not_idle_fraction        1.000000                       # Percentage of non-idle cycles
system.switch_cpus1.numCycles                 5451205                       # number of cpu cycles simulated
system.switch_cpus1.numWorkItemsCompleted            0                       # number of work items this cpu completed
system.switch_cpus1.numWorkItemsStarted             0                       # number of work items this cpu started
system.switch_cpus1.num_busy_cycles      5451204.513142                       # Number of busy cycles
system.switch_cpus1.num_cc_register_reads       779534                       # number of times the CC registers were read
system.switch_cpus1.num_cc_register_writes       418108                       # number of times the CC registers were written
system.switch_cpus1.num_conditional_control_insts        95331                       # number of instructions that are conditional controls
system.switch_cpus1.num_fp_alu_accesses         15329                       # Number of float alu accesses
system.switch_cpus1.num_fp_insts                15329                       # number of float instructions
system.switch_cpus1.num_fp_register_reads        25733                       # number of times the floating registers were read
system.switch_cpus1.num_fp_register_writes        13483                       # number of times the floating registers were written
system.switch_cpus1.num_func_calls              98671                       # number of times a function call or return occured
system.switch_cpus1.num_idle_cycles          0.486858                       # Number of idle cycles
system.switch_cpus1.num_int_alu_accesses      1864048                       # Number of integer alu accesses
system.switch_cpus1.num_int_insts             1864048                       # number of integer instructions
system.switch_cpus1.num_int_register_reads      3951602                       # number of times the integer registers were read
system.switch_cpus1.num_int_register_writes      1462172                       # number of times the integer registers were written
system.switch_cpus1.num_load_insts             271746                       # Number of load instructions
system.switch_cpus1.num_mem_refs               470236                       # number of memory refs
system.switch_cpus1.num_store_insts            198490                       # Number of store instructions
system.switch_cpus1.num_vec_alu_accesses            0                       # Number of vector alu accesses
system.switch_cpus1.num_vec_insts                   0                       # number of vector instructions
system.switch_cpus1.num_vec_register_reads            0                       # number of times the vector registers were read
system.switch_cpus1.num_vec_register_writes            0                       # number of times the vector registers were written
system.switch_cpus1.op_class::No_OpClass         6262      0.33%      0.33% # Class of executed instruction
system.switch_cpus1.op_class::IntAlu          1392853     73.95%     74.29% # Class of executed instruction
system.switch_cpus1.op_class::IntMult             871      0.05%     74.33% # Class of executed instruction
system.switch_cpus1.op_class::IntDiv             2142      0.11%     74.45% # Class of executed instruction
system.switch_cpus1.op_class::FloatAdd            611      0.03%     74.48% # Class of executed instruction
system.switch_cpus1.op_class::FloatCmp              0      0.00%     74.48% # Class of executed instruction
system.switch_cpus1.op_class::FloatCvt              0      0.00%     74.48% # Class of executed instruction
system.switch_cpus1.op_class::FloatMult             0      0.00%     74.48% # Class of executed instruction
system.switch_cpus1.op_class::FloatMultAcc            0      0.00%     74.48% # Class of executed instruction
system.switch_cpus1.op_class::FloatDiv              0      0.00%     74.48% # Class of executed instruction
system.switch_cpus1.op_class::FloatMisc             0      0.00%     74.48% # Class of executed instruction
system.switch_cpus1.op_class::FloatSqrt             0      0.00%     74.48% # Class of executed instruction
system.switch_cpus1.op_class::SimdAdd               0      0.00%     74.48% # Class of executed instruction
system.switch_cpus1.op_class::SimdAddAcc            0      0.00%     74.48% # Class of executed instruction
system.switch_cpus1.op_class::SimdAlu            2452      0.13%     74.61% # Class of executed instruction
system.switch_cpus1.op_class::SimdCmp               0      0.00%     74.61% # Class of executed instruction
system.switch_cpus1.op_class::SimdCvt            2458      0.13%     74.74% # Class of executed instruction
system.switch_cpus1.op_class::SimdMisc           5513      0.29%     75.03% # Class of executed instruction
system.switch_cpus1.op_class::SimdMult              0      0.00%     75.03% # Class of executed instruction
system.switch_cpus1.op_class::SimdMultAcc            0      0.00%     75.03% # Class of executed instruction
system.switch_cpus1.op_class::SimdShift             0      0.00%     75.03% # Class of executed instruction
system.switch_cpus1.op_class::SimdShiftAcc            0      0.00%     75.03% # Class of executed instruction
system.switch_cpus1.op_class::SimdDiv               0      0.00%     75.03% # Class of executed instruction
system.switch_cpus1.op_class::SimdSqrt              0      0.00%     75.03% # Class of executed instruction
system.switch_cpus1.op_class::SimdFloatAdd            0      0.00%     75.03% # Class of executed instruction
system.switch_cpus1.op_class::SimdFloatAlu            0      0.00%     75.03% # Class of executed instruction
system.switch_cpus1.op_class::SimdFloatCmp            0      0.00%     75.03% # Class of executed instruction
system.switch_cpus1.op_class::SimdFloatCvt            0      0.00%     75.03% # Class of executed instruction
system.switch_cpus1.op_class::SimdFloatDiv            0      0.00%     75.03% # Class of executed instruction
system.switch_cpus1.op_class::SimdFloatMisc            0      0.00%     75.03% # Class of executed instruction
system.switch_cpus1.op_class::SimdFloatMult            0      0.00%     75.03% # Class of executed instruction
system.switch_cpus1.op_class::SimdFloatMultAcc            0      0.00%     75.03% # Class of executed instruction
system.switch_cpus1.op_class::SimdFloatSqrt            0      0.00%     75.03% # Class of executed instruction
system.switch_cpus1.op_class::SimdReduceAdd            0      0.00%     75.03% # Class of executed instruction
system.switch_cpus1.op_class::SimdReduceAlu            0      0.00%     75.03% # Class of executed instruction
system.switch_cpus1.op_class::SimdReduceCmp            0      0.00%     75.03% # Class of executed instruction
system.switch_cpus1.op_class::SimdFloatReduceAdd            0      0.00%     75.03% # Class of executed instruction
system.switch_cpus1.op_class::SimdFloatReduceCmp            0      0.00%     75.03% # Class of executed instruction
system.switch_cpus1.op_class::SimdAes               0      0.00%     75.03% # Class of executed instruction
system.switch_cpus1.op_class::SimdAesMix            0      0.00%     75.03% # Class of executed instruction
system.switch_cpus1.op_class::SimdSha1Hash            0      0.00%     75.03% # Class of executed instruction
system.switch_cpus1.op_class::SimdSha1Hash2            0      0.00%     75.03% # Class of executed instruction
system.switch_cpus1.op_class::SimdSha256Hash            0      0.00%     75.03% # Class of executed instruction
system.switch_cpus1.op_class::SimdSha256Hash2            0      0.00%     75.03% # Class of executed instruction
system.switch_cpus1.op_class::SimdShaSigma2            0      0.00%     75.03% # Class of executed instruction
system.switch_cpus1.op_class::SimdShaSigma3            0      0.00%     75.03% # Class of executed instruction
system.switch_cpus1.op_class::SimdPredAlu            0      0.00%     75.03% # Class of executed instruction
system.switch_cpus1.op_class::MemRead          269894     14.33%     89.36% # Class of executed instruction
system.switch_cpus1.op_class::MemWrite         197880     10.51%     99.87% # Class of executed instruction
system.switch_cpus1.op_class::FloatMemRead         1852      0.10%     99.97% # Class of executed instruction
system.switch_cpus1.op_class::FloatMemWrite          610      0.03%    100.00% # Class of executed instruction
system.switch_cpus1.op_class::IprAccess             0      0.00%    100.00% # Class of executed instruction
system.switch_cpus1.op_class::InstPrefetch            0      0.00%    100.00% # Class of executed instruction
system.switch_cpus1.op_class::total           1883398                       # Class of executed instruction
system.switch_cpus_10.branchPred.BTBCorrect            0                       # Number of correct BTB predictions (this stat may not work properly.
system.switch_cpus_10.branchPred.BTBHitPct     0.000000                       # BTB Hit Percentage
system.switch_cpus_10.branchPred.BTBHits            0                       # Number of BTB hits
system.switch_cpus_10.branchPred.BTBLookups       148152                       # Number of BTB lookups
system.switch_cpus_10.branchPred.RASInCorrect            6                       # Number of incorrect RAS predictions.
system.switch_cpus_10.branchPred.condIncorrect        16753                       # Number of conditional branches incorrect
system.switch_cpus_10.branchPred.condPredicted       140672                       # Number of conditional branches predicted
system.switch_cpus_10.branchPred.indirectHits        47143                       # Number of indirect target hits.
system.switch_cpus_10.branchPred.indirectLookups       148152                       # Number of indirect predictor lookups.
system.switch_cpus_10.branchPred.indirectMisses       101009                       # Number of indirect misses.
system.switch_cpus_10.branchPred.lookups       177387                       # Number of BP lookups
system.switch_cpus_10.branchPred.usedRAS        14832                       # Number of times the RAS was used to get a target.
system.switch_cpus_10.branchPredindirectMispredicted        15022                       # Number of mispredicted indirect branches.
system.switch_cpus_10.cc_regfile_reads         510154                       # number of cc regfile reads
system.switch_cpus_10.cc_regfile_writes        286069                       # number of cc regfile writes
system.switch_cpus_10.commit.amos                   0                       # Number of atomic instructions committed
system.switch_cpus_10.commit.branchMispredicts        16753                       # The number of times a branch was mispredicted
system.switch_cpus_10.commit.branches           98556                       # Number of branches committed
system.switch_cpus_10.commit.bw_lim_events        36257                       # number cycles where commit BW limit reached
system.switch_cpus_10.commit.commitNonSpecStalls          442                       # The number of times commit has been forced to stall to communicate backwards
system.switch_cpus_10.commit.commitSquashedInsts       365480                       # The number of squashed insts skipped by commit
system.switch_cpus_10.commit.committedInsts       404319                       # Number of instructions committed
system.switch_cpus_10.commit.committedOps       796360                       # Number of ops (including micro ops) committed
system.switch_cpus_10.commit.committed_per_cycle::samples       502708                       # Number of insts commited each cycle
system.switch_cpus_10.commit.committed_per_cycle::mean     1.584140                       # Number of insts commited each cycle
system.switch_cpus_10.commit.committed_per_cycle::stdev     2.426097                       # Number of insts commited each cycle
system.switch_cpus_10.commit.committed_per_cycle::underflows            0      0.00%      0.00% # Number of insts commited each cycle
system.switch_cpus_10.commit.committed_per_cycle::0       277766     55.25%     55.25% # Number of insts commited each cycle
system.switch_cpus_10.commit.committed_per_cycle::1        62481     12.43%     67.68% # Number of insts commited each cycle
system.switch_cpus_10.commit.committed_per_cycle::2        36185      7.20%     74.88% # Number of insts commited each cycle
system.switch_cpus_10.commit.committed_per_cycle::3        41002      8.16%     83.04% # Number of insts commited each cycle
system.switch_cpus_10.commit.committed_per_cycle::4        22255      4.43%     87.46% # Number of insts commited each cycle
system.switch_cpus_10.commit.committed_per_cycle::5         9569      1.90%     89.37% # Number of insts commited each cycle
system.switch_cpus_10.commit.committed_per_cycle::6         8769      1.74%     91.11% # Number of insts commited each cycle
system.switch_cpus_10.commit.committed_per_cycle::7         8424      1.68%     92.79% # Number of insts commited each cycle
system.switch_cpus_10.commit.committed_per_cycle::8        36257      7.21%    100.00% # Number of insts commited each cycle
system.switch_cpus_10.commit.committed_per_cycle::overflows            0      0.00%    100.00% # Number of insts commited each cycle
system.switch_cpus_10.commit.committed_per_cycle::min_value            0                       # Number of insts commited each cycle
system.switch_cpus_10.commit.committed_per_cycle::max_value            8                       # Number of insts commited each cycle
system.switch_cpus_10.commit.committed_per_cycle::total       502708                       # Number of insts commited each cycle
system.switch_cpus_10.commit.fp_insts           11353                       # Number of committed floating point instructions.
system.switch_cpus_10.commit.function_calls        10559                       # Number of function calls committed.
system.switch_cpus_10.commit.int_insts         788758                       # Number of committed integer instructions.
system.switch_cpus_10.commit.loads             104839                       # Number of loads committed
system.switch_cpus_10.commit.membars                0                       # Number of memory barriers committed
system.switch_cpus_10.commit.op_class_0::No_OpClass         4624      0.58%      0.58% # Class of committed instruction
system.switch_cpus_10.commit.op_class_0::IntAlu       613217     77.00%     77.58% # Class of committed instruction
system.switch_cpus_10.commit.op_class_0::IntMult          498      0.06%     77.65% # Class of committed instruction
system.switch_cpus_10.commit.op_class_0::IntDiv         3777      0.47%     78.12% # Class of committed instruction
system.switch_cpus_10.commit.op_class_0::FloatAdd          549      0.07%     78.19% # Class of committed instruction
system.switch_cpus_10.commit.op_class_0::FloatCmp            0      0.00%     78.19% # Class of committed instruction
system.switch_cpus_10.commit.op_class_0::FloatCvt           48      0.01%     78.19% # Class of committed instruction
system.switch_cpus_10.commit.op_class_0::FloatMult            0      0.00%     78.19% # Class of committed instruction
system.switch_cpus_10.commit.op_class_0::FloatMultAcc            0      0.00%     78.19% # Class of committed instruction
system.switch_cpus_10.commit.op_class_0::FloatDiv            0      0.00%     78.19% # Class of committed instruction
system.switch_cpus_10.commit.op_class_0::FloatMisc            0      0.00%     78.19% # Class of committed instruction
system.switch_cpus_10.commit.op_class_0::FloatSqrt            0      0.00%     78.19% # Class of committed instruction
system.switch_cpus_10.commit.op_class_0::SimdAdd           68      0.01%     78.20% # Class of committed instruction
system.switch_cpus_10.commit.op_class_0::SimdAddAcc            0      0.00%     78.20% # Class of committed instruction
system.switch_cpus_10.commit.op_class_0::SimdAlu          919      0.12%     78.32% # Class of committed instruction
system.switch_cpus_10.commit.op_class_0::SimdCmp            0      0.00%     78.32% # Class of committed instruction
system.switch_cpus_10.commit.op_class_0::SimdCvt          344      0.04%     78.36% # Class of committed instruction
system.switch_cpus_10.commit.op_class_0::SimdMisc         1062      0.13%     78.50% # Class of committed instruction
system.switch_cpus_10.commit.op_class_0::SimdMult            0      0.00%     78.50% # Class of committed instruction
system.switch_cpus_10.commit.op_class_0::SimdMultAcc            0      0.00%     78.50% # Class of committed instruction
system.switch_cpus_10.commit.op_class_0::SimdShift           24      0.00%     78.50% # Class of committed instruction
system.switch_cpus_10.commit.op_class_0::SimdShiftAcc            0      0.00%     78.50% # Class of committed instruction
system.switch_cpus_10.commit.op_class_0::SimdDiv            0      0.00%     78.50% # Class of committed instruction
system.switch_cpus_10.commit.op_class_0::SimdSqrt            0      0.00%     78.50% # Class of committed instruction
system.switch_cpus_10.commit.op_class_0::SimdFloatAdd          102      0.01%     78.51% # Class of committed instruction
system.switch_cpus_10.commit.op_class_0::SimdFloatAlu            0      0.00%     78.51% # Class of committed instruction
system.switch_cpus_10.commit.op_class_0::SimdFloatCmp            0      0.00%     78.51% # Class of committed instruction
system.switch_cpus_10.commit.op_class_0::SimdFloatCvt            0      0.00%     78.51% # Class of committed instruction
system.switch_cpus_10.commit.op_class_0::SimdFloatDiv            0      0.00%     78.51% # Class of committed instruction
system.switch_cpus_10.commit.op_class_0::SimdFloatMisc            0      0.00%     78.51% # Class of committed instruction
system.switch_cpus_10.commit.op_class_0::SimdFloatMult            0      0.00%     78.51% # Class of committed instruction
system.switch_cpus_10.commit.op_class_0::SimdFloatMultAcc            0      0.00%     78.51% # Class of committed instruction
system.switch_cpus_10.commit.op_class_0::SimdFloatSqrt            0      0.00%     78.51% # Class of committed instruction
system.switch_cpus_10.commit.op_class_0::SimdReduceAdd            0      0.00%     78.51% # Class of committed instruction
system.switch_cpus_10.commit.op_class_0::SimdReduceAlu            0      0.00%     78.51% # Class of committed instruction
system.switch_cpus_10.commit.op_class_0::SimdReduceCmp            0      0.00%     78.51% # Class of committed instruction
system.switch_cpus_10.commit.op_class_0::SimdFloatReduceAdd            0      0.00%     78.51% # Class of committed instruction
system.switch_cpus_10.commit.op_class_0::SimdFloatReduceCmp            0      0.00%     78.51% # Class of committed instruction
system.switch_cpus_10.commit.op_class_0::SimdAes            0      0.00%     78.51% # Class of committed instruction
system.switch_cpus_10.commit.op_class_0::SimdAesMix            0      0.00%     78.51% # Class of committed instruction
system.switch_cpus_10.commit.op_class_0::SimdSha1Hash            0      0.00%     78.51% # Class of committed instruction
system.switch_cpus_10.commit.op_class_0::SimdSha1Hash2            0      0.00%     78.51% # Class of committed instruction
system.switch_cpus_10.commit.op_class_0::SimdSha256Hash            0      0.00%     78.51% # Class of committed instruction
system.switch_cpus_10.commit.op_class_0::SimdSha256Hash2            0      0.00%     78.51% # Class of committed instruction
system.switch_cpus_10.commit.op_class_0::SimdShaSigma2            0      0.00%     78.51% # Class of committed instruction
system.switch_cpus_10.commit.op_class_0::SimdShaSigma3            0      0.00%     78.51% # Class of committed instruction
system.switch_cpus_10.commit.op_class_0::SimdPredAlu            0      0.00%     78.51% # Class of committed instruction
system.switch_cpus_10.commit.op_class_0::MemRead       102953     12.93%     91.44% # Class of committed instruction
system.switch_cpus_10.commit.op_class_0::MemWrite        60055      7.54%     98.98% # Class of committed instruction
system.switch_cpus_10.commit.op_class_0::FloatMemRead         1886      0.24%     99.22% # Class of committed instruction
system.switch_cpus_10.commit.op_class_0::FloatMemWrite         6234      0.78%    100.00% # Class of committed instruction
system.switch_cpus_10.commit.op_class_0::IprAccess            0      0.00%    100.00% # Class of committed instruction
system.switch_cpus_10.commit.op_class_0::InstPrefetch            0      0.00%    100.00% # Class of committed instruction
system.switch_cpus_10.commit.op_class_0::total       796360                       # Class of committed instruction
system.switch_cpus_10.commit.refs              171128                       # Number of memory references committed
system.switch_cpus_10.commit.swp_count              0                       # Number of s/w prefetches committed
system.switch_cpus_10.commit.vec_insts              0                       # Number of committed Vector instructions.
system.switch_cpus_10.committedInsts           404319                       # Number of Instructions Simulated
system.switch_cpus_10.committedOps             796360                       # Number of Ops (including micro ops) Simulated
system.switch_cpus_10.cpi                    1.523453                       # CPI: Cycles Per Instruction
system.switch_cpus_10.cpi_total              1.523453                       # CPI: Total CPI of All Threads
system.switch_cpus_10.decode.BlockedCycles        87691                       # Number of cycles decode is blocked
system.switch_cpus_10.decode.DecodedInsts      1343996                       # Number of instructions handled by decode
system.switch_cpus_10.decode.IdleCycles        252319                       # Number of cycles decode is idle
system.switch_cpus_10.decode.RunCycles         200852                       # Number of cycles decode is running
system.switch_cpus_10.decode.SquashCycles        16792                       # Number of cycles decode is squashing
system.switch_cpus_10.decode.UnblockCycles         1886                       # Number of cycles decode is unblocking
system.switch_cpus_10.dtb.rdAccesses           132445                       # TLB accesses on read requests
system.switch_cpus_10.dtb.rdMisses                341                       # TLB misses on read requests
system.switch_cpus_10.dtb.wrAccesses            80351                       # TLB accesses on write requests
system.switch_cpus_10.dtb.wrMisses                  8                       # TLB misses on write requests
system.switch_cpus_10.fetch.Branches           177387                       # Number of branches that fetch encountered
system.switch_cpus_10.fetch.CacheLines         102328                       # Number of cache lines fetched
system.switch_cpus_10.fetch.Cycles             265861                       # Number of cycles fetch has run and was not squashing or blocked
system.switch_cpus_10.fetch.IcacheSquashes         7598                       # Number of outstanding Icache misses that were squashed
system.switch_cpus_10.fetch.IcacheWaitRetryStallCycles          748                       # Number of stall cycles due to full MSHR
system.switch_cpus_10.fetch.Insts              707230                       # Number of instructions fetch has processed
system.switch_cpus_10.fetch.MiscStallCycles          548                       # Number of cycles fetch has spent waiting on interrupts, or bad addresses, or out of MSHRs
system.switch_cpus_10.fetch.PendingQuiesceStallCycles           32                       # Number of stall cycles due to pending quiesce instructions
system.switch_cpus_10.fetch.SquashCycles        33584                       # Number of cycles fetch has spent squashing
system.switch_cpus_10.fetch.branchRate       0.287984                       # Number of branch fetches per cycle
system.switch_cpus_10.fetch.icacheStallCycles       275561                       # Number of cycles fetch is stalled on an Icache miss
system.switch_cpus_10.fetch.predictedBranches        61975                       # Number of branches that fetch has predicted taken
system.switch_cpus_10.fetch.rate             1.148173                       # Number of inst fetches per cycle
system.switch_cpus_10.fetch.rateDist::samples       559542                       # Number of instructions fetched each cycle (Total)
system.switch_cpus_10.fetch.rateDist::mean     2.534646                       # Number of instructions fetched each cycle (Total)
system.switch_cpus_10.fetch.rateDist::stdev     3.466641                       # Number of instructions fetched each cycle (Total)
system.switch_cpus_10.fetch.rateDist::underflows            0      0.00%      0.00% # Number of instructions fetched each cycle (Total)
system.switch_cpus_10.fetch.rateDist::0        340705     60.89%     60.89% # Number of instructions fetched each cycle (Total)
system.switch_cpus_10.fetch.rateDist::1         10096      1.80%     62.69% # Number of instructions fetched each cycle (Total)
system.switch_cpus_10.fetch.rateDist::2         12932      2.31%     65.01% # Number of instructions fetched each cycle (Total)
system.switch_cpus_10.fetch.rateDist::3         12649      2.26%     67.27% # Number of instructions fetched each cycle (Total)
system.switch_cpus_10.fetch.rateDist::4         11648      2.08%     69.35% # Number of instructions fetched each cycle (Total)
system.switch_cpus_10.fetch.rateDist::5         10826      1.93%     71.28% # Number of instructions fetched each cycle (Total)
system.switch_cpus_10.fetch.rateDist::6         15316      2.74%     74.02% # Number of instructions fetched each cycle (Total)
system.switch_cpus_10.fetch.rateDist::7         11244      2.01%     76.03% # Number of instructions fetched each cycle (Total)
system.switch_cpus_10.fetch.rateDist::8        134126     23.97%    100.00% # Number of instructions fetched each cycle (Total)
system.switch_cpus_10.fetch.rateDist::overflows            0      0.00%    100.00% # Number of instructions fetched each cycle (Total)
system.switch_cpus_10.fetch.rateDist::min_value            0                       # Number of instructions fetched each cycle (Total)
system.switch_cpus_10.fetch.rateDist::max_value            8                       # Number of instructions fetched each cycle (Total)
system.switch_cpus_10.fetch.rateDist::total       559542                       # Number of instructions fetched each cycle (Total)
system.switch_cpus_10.fp_regfile_reads          13147                       # number of floating regfile reads
system.switch_cpus_10.fp_regfile_writes          6596                       # number of floating regfile writes
system.switch_cpus_10.idleCycles                56419                       # Total number of cycles that the CPU has spent unscheduled due to idling
system.switch_cpus_10.iew.branchMispredicts        21744                       # Number of branch mispredicts detected at execute
system.switch_cpus_10.iew.exec_branches        116930                       # Number of branches executed
system.switch_cpus_10.iew.exec_nop                  0                       # number of nop insts executed
system.switch_cpus_10.iew.exec_rate          1.653062                       # Inst execution rate
system.switch_cpus_10.iew.exec_refs            212409                       # number of memory reference insts executed
system.switch_cpus_10.iew.exec_stores           80266                       # Number of stores executed
system.switch_cpus_10.iew.exec_swp                  0                       # number of swp insts executed
system.switch_cpus_10.iew.iewBlockCycles        44699                       # Number of cycles IEW is blocking
system.switch_cpus_10.iew.iewDispLoadInsts       147504                       # Number of dispatched load instructions
system.switch_cpus_10.iew.iewDispNonSpecInsts          536                       # Number of dispatched non-speculative instructions
system.switch_cpus_10.iew.iewDispSquashedInsts         8639                       # Number of squashed instructions skipped by dispatch
system.switch_cpus_10.iew.iewDispStoreInsts        96778                       # Number of dispatched store instructions
system.switch_cpus_10.iew.iewDispatchedInsts      1161830                       # Number of instructions dispatched to IQ
system.switch_cpus_10.iew.iewExecLoadInsts       132143                       # Number of load instructions executed
system.switch_cpus_10.iew.iewExecSquashedInsts        37390                       # Number of squashed instructions skipped in execute
system.switch_cpus_10.iew.iewExecutedInsts      1018222                       # Number of executed instructions
system.switch_cpus_10.iew.iewIQFullEvents           50                       # Number of times the IQ has become full, causing a stall
system.switch_cpus_10.iew.iewIdleCycles             0                       # Number of cycles IEW is idle
system.switch_cpus_10.iew.iewLSQFullEvents         2759                       # Number of times the LSQ has become full, causing a stall
system.switch_cpus_10.iew.iewSquashCycles        16792                       # Number of cycles IEW is squashing
system.switch_cpus_10.iew.iewUnblockCycles         2833                       # Number of cycles IEW is unblocking
system.switch_cpus_10.iew.lsq.thread0.blockedLoads            0                       # Number of blocked loads due to partial load-store forwarding
system.switch_cpus_10.iew.lsq.thread0.cacheBlocked           28                       # Number of times an access to memory failed due to the cache being blocked
system.switch_cpus_10.iew.lsq.thread0.forwLoads        14514                       # Number of loads that had data forwarded from stores
system.switch_cpus_10.iew.lsq.thread0.ignoredResponses          225                       # Number of memory responses ignored because the instruction is squashed
system.switch_cpus_10.iew.lsq.thread0.invAddrLoads            0                       # Number of loads ignored due to an invalid address
system.switch_cpus_10.iew.lsq.thread0.invAddrSwpfs            0                       # Number of software prefetches ignored due to an invalid address
system.switch_cpus_10.iew.lsq.thread0.memOrderViolation           50                       # Number of memory ordering violations
system.switch_cpus_10.iew.lsq.thread0.rescheduledLoads            3                       # Number of loads that were rescheduled
system.switch_cpus_10.iew.lsq.thread0.squashedLoads        42665                       # Number of loads squashed
system.switch_cpus_10.iew.lsq.thread0.squashedStores        30489                       # Number of stores squashed
system.switch_cpus_10.iew.memOrderViolationEvents           50                       # Number of memory order violations
system.switch_cpus_10.iew.predictedNotTakenIncorrect        20573                       # Number of branches that were predicted not taken incorrectly
system.switch_cpus_10.iew.predictedTakenIncorrect         1171                       # Number of branches that were predicted taken incorrectly
system.switch_cpus_10.iew.wb_consumers        1074867                       # num instructions consuming a value
system.switch_cpus_10.iew.wb_count            1001676                       # cumulative count of insts written-back
system.switch_cpus_10.iew.wb_fanout          0.644204                       # average fanout of values written-back
system.switch_cpus_10.iew.wb_producers         692434                       # num instructions producing a value
system.switch_cpus_10.iew.wb_rate            1.626200                       # insts written-back per cycle
system.switch_cpus_10.iew.wb_sent             1006330                       # cumulative count of insts sent to commit
system.switch_cpus_10.int_regfile_reads       1463850                       # number of integer regfile reads
system.switch_cpus_10.int_regfile_writes       804531                       # number of integer regfile writes
system.switch_cpus_10.ipc                    0.656404                       # IPC: Instructions Per Cycle
system.switch_cpus_10.ipc_total              0.656404                       # IPC: Total IPC of All Threads
system.switch_cpus_10.iq.FU_type_0::No_OpClass        10729      1.02%      1.02% # Type of FU issued
system.switch_cpus_10.iq.FU_type_0::IntAlu       813080     77.02%     78.04% # Type of FU issued
system.switch_cpus_10.iq.FU_type_0::IntMult          545      0.05%     78.09% # Type of FU issued
system.switch_cpus_10.iq.FU_type_0::IntDiv         4280      0.41%     78.50% # Type of FU issued
system.switch_cpus_10.iq.FU_type_0::FloatAdd         1698      0.16%     78.66% # Type of FU issued
system.switch_cpus_10.iq.FU_type_0::FloatCmp            0      0.00%     78.66% # Type of FU issued
system.switch_cpus_10.iq.FU_type_0::FloatCvt          228      0.02%     78.68% # Type of FU issued
system.switch_cpus_10.iq.FU_type_0::FloatMult            0      0.00%     78.68% # Type of FU issued
system.switch_cpus_10.iq.FU_type_0::FloatMultAcc            0      0.00%     78.68% # Type of FU issued
system.switch_cpus_10.iq.FU_type_0::FloatDiv            0      0.00%     78.68% # Type of FU issued
system.switch_cpus_10.iq.FU_type_0::FloatMisc            0      0.00%     78.68% # Type of FU issued
system.switch_cpus_10.iq.FU_type_0::FloatSqrt            0      0.00%     78.68% # Type of FU issued
system.switch_cpus_10.iq.FU_type_0::SimdAdd           89      0.01%     78.69% # Type of FU issued
system.switch_cpus_10.iq.FU_type_0::SimdAddAcc            0      0.00%     78.69% # Type of FU issued
system.switch_cpus_10.iq.FU_type_0::SimdAlu         1093      0.10%     78.79% # Type of FU issued
system.switch_cpus_10.iq.FU_type_0::SimdCmp            0      0.00%     78.79% # Type of FU issued
system.switch_cpus_10.iq.FU_type_0::SimdCvt          417      0.04%     78.83% # Type of FU issued
system.switch_cpus_10.iq.FU_type_0::SimdMisc         1090      0.10%     78.94% # Type of FU issued
system.switch_cpus_10.iq.FU_type_0::SimdMult            0      0.00%     78.94% # Type of FU issued
system.switch_cpus_10.iq.FU_type_0::SimdMultAcc            0      0.00%     78.94% # Type of FU issued
system.switch_cpus_10.iq.FU_type_0::SimdShift           93      0.01%     78.94% # Type of FU issued
system.switch_cpus_10.iq.FU_type_0::SimdShiftAcc            0      0.00%     78.94% # Type of FU issued
system.switch_cpus_10.iq.FU_type_0::SimdDiv            0      0.00%     78.94% # Type of FU issued
system.switch_cpus_10.iq.FU_type_0::SimdSqrt            0      0.00%     78.94% # Type of FU issued
system.switch_cpus_10.iq.FU_type_0::SimdFloatAdd          102      0.01%     78.95% # Type of FU issued
system.switch_cpus_10.iq.FU_type_0::SimdFloatAlu            0      0.00%     78.95% # Type of FU issued
system.switch_cpus_10.iq.FU_type_0::SimdFloatCmp            0      0.00%     78.95% # Type of FU issued
system.switch_cpus_10.iq.FU_type_0::SimdFloatCvt            0      0.00%     78.95% # Type of FU issued
system.switch_cpus_10.iq.FU_type_0::SimdFloatDiv            0      0.00%     78.95% # Type of FU issued
system.switch_cpus_10.iq.FU_type_0::SimdFloatMisc            0      0.00%     78.95% # Type of FU issued
system.switch_cpus_10.iq.FU_type_0::SimdFloatMult            0      0.00%     78.95% # Type of FU issued
system.switch_cpus_10.iq.FU_type_0::SimdFloatMultAcc            0      0.00%     78.95% # Type of FU issued
system.switch_cpus_10.iq.FU_type_0::SimdFloatSqrt            0      0.00%     78.95% # Type of FU issued
system.switch_cpus_10.iq.FU_type_0::SimdReduceAdd            0      0.00%     78.95% # Type of FU issued
system.switch_cpus_10.iq.FU_type_0::SimdReduceAlu            0      0.00%     78.95% # Type of FU issued
system.switch_cpus_10.iq.FU_type_0::SimdReduceCmp            0      0.00%     78.95% # Type of FU issued
system.switch_cpus_10.iq.FU_type_0::SimdFloatReduceAdd            0      0.00%     78.95% # Type of FU issued
system.switch_cpus_10.iq.FU_type_0::SimdFloatReduceCmp            0      0.00%     78.95% # Type of FU issued
system.switch_cpus_10.iq.FU_type_0::SimdAes            0      0.00%     78.95% # Type of FU issued
system.switch_cpus_10.iq.FU_type_0::SimdAesMix            0      0.00%     78.95% # Type of FU issued
system.switch_cpus_10.iq.FU_type_0::SimdSha1Hash            0      0.00%     78.95% # Type of FU issued
system.switch_cpus_10.iq.FU_type_0::SimdSha1Hash2            0      0.00%     78.95% # Type of FU issued
system.switch_cpus_10.iq.FU_type_0::SimdSha256Hash            0      0.00%     78.95% # Type of FU issued
system.switch_cpus_10.iq.FU_type_0::SimdSha256Hash2            0      0.00%     78.95% # Type of FU issued
system.switch_cpus_10.iq.FU_type_0::SimdShaSigma2            0      0.00%     78.95% # Type of FU issued
system.switch_cpus_10.iq.FU_type_0::SimdShaSigma3            0      0.00%     78.95% # Type of FU issued
system.switch_cpus_10.iq.FU_type_0::SimdPredAlu            0      0.00%     78.95% # Type of FU issued
system.switch_cpus_10.iq.FU_type_0::MemRead       133744     12.67%     91.62% # Type of FU issued
system.switch_cpus_10.iq.FU_type_0::MemWrite        77468      7.34%     98.96% # Type of FU issued
system.switch_cpus_10.iq.FU_type_0::FloatMemRead         4082      0.39%     99.35% # Type of FU issued
system.switch_cpus_10.iq.FU_type_0::FloatMemWrite         6874      0.65%    100.00% # Type of FU issued
system.switch_cpus_10.iq.FU_type_0::IprAccess            0      0.00%    100.00% # Type of FU issued
system.switch_cpus_10.iq.FU_type_0::InstPrefetch            0      0.00%    100.00% # Type of FU issued
system.switch_cpus_10.iq.FU_type_0::total      1055612                       # Type of FU issued
system.switch_cpus_10.iq.fp_alu_accesses        17045                       # Number of floating point alu accesses
system.switch_cpus_10.iq.fp_inst_queue_reads        32955                       # Number of floating instruction queue reads
system.switch_cpus_10.iq.fp_inst_queue_wakeup_accesses        13515                       # Number of floating instruction queue wakeup accesses
system.switch_cpus_10.iq.fp_inst_queue_writes        24769                       # Number of floating instruction queue writes
system.switch_cpus_10.iq.fu_busy_cnt            15734                       # FU busy when requested
system.switch_cpus_10.iq.fu_busy_rate        0.014905                       # FU busy rate (busy events/executed inst)
system.switch_cpus_10.iq.fu_full::No_OpClass            0      0.00%      0.00% # attempts to use FU when none available
system.switch_cpus_10.iq.fu_full::IntAlu        13479     85.67%     85.67% # attempts to use FU when none available
system.switch_cpus_10.iq.fu_full::IntMult            0      0.00%     85.67% # attempts to use FU when none available
system.switch_cpus_10.iq.fu_full::IntDiv            0      0.00%     85.67% # attempts to use FU when none available
system.switch_cpus_10.iq.fu_full::FloatAdd            0      0.00%     85.67% # attempts to use FU when none available
system.switch_cpus_10.iq.fu_full::FloatCmp            0      0.00%     85.67% # attempts to use FU when none available
system.switch_cpus_10.iq.fu_full::FloatCvt            0      0.00%     85.67% # attempts to use FU when none available
system.switch_cpus_10.iq.fu_full::FloatMult            0      0.00%     85.67% # attempts to use FU when none available
system.switch_cpus_10.iq.fu_full::FloatMultAcc            0      0.00%     85.67% # attempts to use FU when none available
system.switch_cpus_10.iq.fu_full::FloatDiv            0      0.00%     85.67% # attempts to use FU when none available
system.switch_cpus_10.iq.fu_full::FloatMisc            0      0.00%     85.67% # attempts to use FU when none available
system.switch_cpus_10.iq.fu_full::FloatSqrt            0      0.00%     85.67% # attempts to use FU when none available
system.switch_cpus_10.iq.fu_full::SimdAdd            0      0.00%     85.67% # attempts to use FU when none available
system.switch_cpus_10.iq.fu_full::SimdAddAcc            0      0.00%     85.67% # attempts to use FU when none available
system.switch_cpus_10.iq.fu_full::SimdAlu          107      0.68%     86.35% # attempts to use FU when none available
system.switch_cpus_10.iq.fu_full::SimdCmp            0      0.00%     86.35% # attempts to use FU when none available
system.switch_cpus_10.iq.fu_full::SimdCvt            2      0.01%     86.36% # attempts to use FU when none available
[...]
system.cpu1.l2cache.tags.occ_blocks::.switch_cpus_11.inst     0.193929                       # Average occupied blocks per requestor
system.cpu1.l2cache.tags.occ_blocks::.switch_cpus_11.data    66.876225                       # Average occupied blocks per requestor
system.cpu1.l2cache.tags.occ_percent::.cpu1.inst     0.000001                       # Average percentage of cache occupancy
system.cpu1.l2cache.tags.occ_percent::.cpu1.data     0.000005                       # Average percentage of cache occupancy
system.cpu1.l2cache.tags.occ_percent::.cpu1.dcache.prefetcher     0.000029                       # Average percentage of cache occupancy
system.cpu1.l2cache.tags.occ_percent::.switch_cpus1.inst     0.000171                       # Average percentage of cache occupancy
system.cpu1.l2cache.tags.occ_percent::.switch_cpus1.data     0.002707                       # Average percentage of cache occupancy
system.cpu1.l2cache.tags.occ_percent::.switch_cpus_11.inst     0.000047                       # Average percentage of cache occupancy
system.cpu1.l2cache.tags.occ_percent::.switch_cpus_11.data     0.016327                       # Average percentage of cache occupancy
system.cpu1.l2cache.tags.occ_percent::total     0.019287                       # Average percentage of cache occupancy
system.cpu1.l2cache.tags.occ_task_id_blocks::1022            5                       # Occupied blocks per task id
system.cpu1.l2cache.tags.occ_task_id_blocks::1024         4091                       # Occupied blocks per task id
system.cpu1.l2cache.tags.age_task_id_blocks_1022::3            1                       # Occupied blocks per task id
system.cpu1.l2cache.tags.age_task_id_blocks_1022::4            4                       # Occupied blocks per task id
system.cpu1.l2cache.tags.age_task_id_blocks_1024::0            2                       # Occupied blocks per task id
system.cpu1.l2cache.tags.age_task_id_blocks_1024::1           62                       # Occupied blocks per task id
system.cpu1.l2cache.tags.age_task_id_blocks_1024::2         1031                       # Occupied blocks per task id
system.cpu1.l2cache.tags.age_task_id_blocks_1024::3         2488                       # Occupied blocks per task id
system.cpu1.l2cache.tags.age_task_id_blocks_1024::4          508                       # Occupied blocks per task id
system.cpu1.l2cache.tags.occ_task_id_percent::1022     0.001221                       # Percentage of cache occupancy per task id
system.cpu1.l2cache.tags.occ_task_id_percent::1024     0.998779                       # Percentage of cache occupancy per task id
system.cpu1.l2cache.tags.tag_accesses         1845064                       # Number of tag accesses
system.cpu1.l2cache.tags.data_accesses        1845064                       # Number of data accesses
system.cpu1.toL2Bus.pwrStateResidencyTicks::UNDEFINED 1321365856020                       # Cumulative time (in ticks) in various power states
system.cpu1.toL2Bus.trans_dist::ReadResp        56986                       # Transaction distribution
system.cpu1.toL2Bus.trans_dist::WritebackDirty          185                       # Transaction distribution
system.cpu1.toL2Bus.trans_dist::CleanEvict        82623                       # Transaction distribution
system.cpu1.toL2Bus.trans_dist::ReadExReq          148                       # Transaction distribution
system.cpu1.toL2Bus.trans_dist::ReadExResp          148                       # Transaction distribution
system.cpu1.toL2Bus.trans_dist::ReadCleanReq          287                       # Transaction distribution
system.cpu1.toL2Bus.trans_dist::ReadSharedReq        56699                       # Transaction distribution
system.cpu1.toL2Bus.pkt_count_system.cpu1.icache.mem_side::system.cpu1.l2cache.cpu_side          574                       # Packet count per connected master and slave (bytes)
system.cpu1.toL2Bus.pkt_count_system.cpu1.dcache.mem_side::system.cpu1.l2cache.cpu_side       170029                       # Packet count per connected master and slave (bytes)
system.cpu1.toL2Bus.pkt_count::total           170603                       # Packet count per connected master and slave (bytes)
system.cpu1.toL2Bus.pkt_size_system.cpu1.icache.mem_side::system.cpu1.l2cache.cpu_side        18368                       # Cumulative packet size per connected master and slave (bytes)
system.cpu1.toL2Bus.pkt_size_system.cpu1.dcache.mem_side::system.cpu1.l2cache.cpu_side      3649536                       # Cumulative packet size per connected master and slave (bytes)
system.cpu1.toL2Bus.pkt_size::total           3667904                       # Cumulative packet size per connected master and slave (bytes)
system.cpu1.toL2Bus.snoops                      26473                       # Total snoops (count)
system.cpu1.toL2Bus.snoopTraffic                  512                       # Total snoop traffic (bytes)
system.cpu1.toL2Bus.snoop_fanout::samples        83607                       # Request fanout histogram
system.cpu1.toL2Bus.snoop_fanout::mean       0.006602                       # Request fanout histogram
system.cpu1.toL2Bus.snoop_fanout::stdev      0.080986                       # Request fanout histogram
system.cpu1.toL2Bus.snoop_fanout::underflows            0      0.00%      0.00% # Request fanout histogram
system.cpu1.toL2Bus.snoop_fanout::0             83055     99.34%     99.34% # Request fanout histogram
system.cpu1.toL2Bus.snoop_fanout::1               552      0.66%    100.00% # Request fanout histogram
system.cpu1.toL2Bus.snoop_fanout::2                 0      0.00%    100.00% # Request fanout histogram
system.cpu1.toL2Bus.snoop_fanout::3                 0      0.00%    100.00% # Request fanout histogram
system.cpu1.toL2Bus.snoop_fanout::4                 0      0.00%    100.00% # Request fanout histogram
system.cpu1.toL2Bus.snoop_fanout::overflows            0      0.00%    100.00% # Request fanout histogram
system.cpu1.toL2Bus.snoop_fanout::min_value            0                       # Request fanout histogram
system.cpu1.toL2Bus.snoop_fanout::max_value            1                       # Request fanout histogram
system.cpu1.toL2Bus.snoop_fanout::total         83607                       # Request fanout histogram
system.cpu1.toL2Bus.reqLayer0.occupancy      47499133                       # Layer occupancy (ticks)
system.cpu1.toL2Bus.reqLayer0.utilization          0.2                       # Layer utilization (%)
system.cpu1.toL2Bus.respLayer1.occupancy     71114346                       # Layer occupancy (ticks)
system.cpu1.toL2Bus.respLayer1.utilization          0.3                       # Layer utilization (%)
system.cpu1.toL2Bus.respLayer0.occupancy       357786                       # Layer occupancy (ticks)
system.cpu1.toL2Bus.respLayer0.utilization          0.0                       # Layer utilization (%)
system.switch_cpus_10.numPwrStateTransitions            1                       # Number of power state transitions
system.switch_cpus_10.pwrStateClkGateDist::samples            1                       # Distribution of time spent in the clock gated state
system.switch_cpus_10.pwrStateClkGateDist::mean  25484137680                       # Distribution of time spent in the clock gated state
system.switch_cpus_10.pwrStateClkGateDist::1000-5e+10            1    100.00%    100.00% # Distribution of time spent in the clock gated state
system.switch_cpus_10.pwrStateClkGateDist::min_value  25484137680                       # Distribution of time spent in the clock gated state
system.switch_cpus_10.pwrStateClkGateDist::max_value  25484137680                       # Distribution of time spent in the clock gated state
system.switch_cpus_10.pwrStateClkGateDist::total            1                       # Distribution of time spent in the clock gated state
system.switch_cpus_10.pwrStateResidencyTicks::CLK_GATED  25484137680                       # Cumulative time (in ticks) in various power states
system.switch_cpus_10.pwrStateResidencyTicks::OFF   2530010724                       # Cumulative time (in ticks) in various power states
system.switch_cpus_10.dtb.walker.pwrStateResidencyTicks::UNDEFINED 1321365856020                       # Cumulative time (in ticks) in various power states
system.switch_cpus_10.itb.walker.pwrStateResidencyTicks::UNDEFINED 1321365856020                       # Cumulative time (in ticks) in various power states
system.switch_cpus_11.pwrStateResidencyTicks::OFF  28014148404                       # Cumulative time (in ticks) in various power states
system.switch_cpus_11.dtb.walker.pwrStateResidencyTicks::UNDEFINED 1321365856020                       # Cumulative time (in ticks) in various power states
system.switch_cpus_11.itb.walker.pwrStateResidencyTicks::UNDEFINED 1321365856020                       # Cumulative time (in ticks) in various power states
system.cpu_voltage_domain.voltage                   1                       # Voltage in Volts
system.switch_cpus1.numPwrStateTransitions            1                       # Number of power state transitions
system.switch_cpus1.pwrStateResidencyTicks::UNDEFINED 1293351707616                       # Cumulative time (in ticks) in various power states
system.switch_cpus1.pwrStateResidencyTicks::OFF  28014148404                       # Cumulative time (in ticks) in various power states
system.switch_cpus1.dtb.walker.pwrStateResidencyTicks::UNDEFINED 1321365856020                       # Cumulative time (in ticks) in various power states
system.switch_cpus1.itb.walker.pwrStateResidencyTicks::UNDEFINED 1321365856020                       # Cumulative time (in ticks) in various power states
system.mem_ctrls.pwrStateResidencyTicks::UNDEFINED 1321365856020                       # Cumulative time (in ticks) in various power states
system.mem_ctrls.bytes_read::.cpu0.inst            64                       # Number of bytes read from this memory
system.mem_ctrls.bytes_read::.cpu0.dcache.prefetcher         4544                       # Number of bytes read from this memory
system.mem_ctrls.bytes_read::.cpu1.inst            64                       # Number of bytes read from this memory
system.mem_ctrls.bytes_read::.cpu1.data            64                       # Number of bytes read from this memory
system.mem_ctrls.bytes_read::.cpu1.dcache.prefetcher          832                       # Number of bytes read from this memory
system.mem_ctrls.bytes_read::.switch_cpus0.inst        20544                       # Number of bytes read from this memory
system.mem_ctrls.bytes_read::.switch_cpus0.data        10048                       # Number of bytes read from this memory
system.mem_ctrls.bytes_read::.switch_cpus1.inst        12672                       # Number of bytes read from this memory
system.mem_ctrls.bytes_read::.switch_cpus1.data        75712                       # Number of bytes read from this memory
system.mem_ctrls.bytes_read::.switch_cpus_10.inst        38080                       # Number of bytes read from this memory
system.mem_ctrls.bytes_read::.switch_cpus_10.data        26112                       # Number of bytes read from this memory
system.mem_ctrls.bytes_read::.switch_cpus_11.inst         5632                       # Number of bytes read from this memory
system.mem_ctrls.bytes_read::.switch_cpus_11.data      1844480                       # Number of bytes read from this memory
system.mem_ctrls.bytes_read::total            2038848                       # Number of bytes read from this memory
system.mem_ctrls.bytes_inst_read::.cpu0.inst           64                       # Number of instructions bytes read from this memory
system.mem_ctrls.bytes_inst_read::.cpu1.inst           64                       # Number of instructions bytes read from this memory
system.mem_ctrls.bytes_inst_read::.switch_cpus0.inst        20544                       # Number of instructions bytes read from this memory
system.mem_ctrls.bytes_inst_read::.switch_cpus1.inst        12672                       # Number of instructions bytes read from this memory
system.mem_ctrls.bytes_inst_read::.switch_cpus_10.inst        38080                       # Number of instructions bytes read from this memory
system.mem_ctrls.bytes_inst_read::.switch_cpus_11.inst         5632                       # Number of instructions bytes read from this memory
system.mem_ctrls.bytes_inst_read::total         77056                       # Number of instructions bytes read from this memory
system.mem_ctrls.bytes_written::.switch_cpus1.data          128                       # Number of bytes written to this memory
system.mem_ctrls.bytes_written::total             128                       # Number of bytes written to this memory
system.mem_ctrls.num_reads::.cpu0.inst              1                       # Number of read requests responded to by this memory
system.mem_ctrls.num_reads::.cpu0.dcache.prefetcher           71                       # Number of read requests responded to by this memory
system.mem_ctrls.num_reads::.cpu1.inst              1                       # Number of read requests responded to by this memory
system.mem_ctrls.num_reads::.cpu1.data              1                       # Number of read requests responded to by this memory
system.mem_ctrls.num_reads::.cpu1.dcache.prefetcher           13                       # Number of read requests responded to by this memory
system.mem_ctrls.num_reads::.switch_cpus0.inst          321                       # Number of read requests responded to by this memory
system.mem_ctrls.num_reads::.switch_cpus0.data          157                       # Number of read requests responded to by this memory
system.mem_ctrls.num_reads::.switch_cpus1.inst          198                       # Number of read requests responded to by this memory
system.mem_ctrls.num_reads::.switch_cpus1.data         1183                       # Number of read requests responded to by this memory
system.mem_ctrls.num_reads::.switch_cpus_10.inst          595                       # Number of read requests responded to by this memory
system.mem_ctrls.num_reads::.switch_cpus_10.data          408                       # Number of read requests responded to by this memory
system.mem_ctrls.num_reads::.switch_cpus_11.inst           88                       # Number of read requests responded to by this memory
system.mem_ctrls.num_reads::.switch_cpus_11.data        28820                       # Number of read requests responded to by this memory
system.mem_ctrls.num_reads::total               31857                       # Number of read requests responded to by this memory
system.mem_ctrls.num_writes::.switch_cpus1.data            2                       # Number of write requests responded to by this memory
system.mem_ctrls.num_writes::total                  2                       # Number of write requests responded to by this memory
system.mem_ctrls.bw_read::.cpu0.inst             2285                       # Total read bandwidth from this memory (bytes/s)
system.mem_ctrls.bw_read::.cpu0.dcache.prefetcher       162204                       # Total read bandwidth from this memory (bytes/s)
system.mem_ctrls.bw_read::.cpu1.inst             2285                       # Total read bandwidth from this memory (bytes/s)
system.mem_ctrls.bw_read::.cpu1.data             2285                       # Total read bandwidth from this memory (bytes/s)
system.mem_ctrls.bw_read::.cpu1.dcache.prefetcher        29699                       # Total read bandwidth from this memory (bytes/s)
system.mem_ctrls.bw_read::.switch_cpus0.inst       733344                       # Total read bandwidth from this memory (bytes/s)
system.mem_ctrls.bw_read::.switch_cpus0.data       358676                       # Total read bandwidth from this memory (bytes/s)
system.mem_ctrls.bw_read::.switch_cpus1.inst       452343                       # Total read bandwidth from this memory (bytes/s)
system.mem_ctrls.bw_read::.switch_cpus1.data      2702634                       # Total read bandwidth from this memory (bytes/s)
system.mem_ctrls.bw_read::.switch_cpus_10.inst      1359313                       # Total read bandwidth from this memory (bytes/s)
system.mem_ctrls.bw_read::.switch_cpus_10.data       932100                       # Total read bandwidth from this memory (bytes/s)
system.mem_ctrls.bw_read::.switch_cpus_11.inst       201041                       # Total read bandwidth from this memory (bytes/s)
system.mem_ctrls.bw_read::.switch_cpus_11.data     65841016                       # Total read bandwidth from this memory (bytes/s)
system.mem_ctrls.bw_read::total              72779225                       # Total read bandwidth from this memory (bytes/s)
system.mem_ctrls.bw_inst_read::.cpu0.inst         2285                       # Instruction read bandwidth from this memory (bytes/s)
system.mem_ctrls.bw_inst_read::.cpu1.inst         2285                       # Instruction read bandwidth from this memory (bytes/s)
system.mem_ctrls.bw_inst_read::.switch_cpus0.inst       733344                       # Instruction read bandwidth from this memory (bytes/s)
system.mem_ctrls.bw_inst_read::.switch_cpus1.inst       452343                       # Instruction read bandwidth from this memory (bytes/s)
system.mem_ctrls.bw_inst_read::.switch_cpus_10.inst      1359313                       # Instruction read bandwidth from this memory (bytes/s)
system.mem_ctrls.bw_inst_read::.switch_cpus_11.inst       201041                       # Instruction read bandwidth from this memory (bytes/s)
system.mem_ctrls.bw_inst_read::total          2750610                       # Instruction read bandwidth from this memory (bytes/s)
system.mem_ctrls.bw_write::.switch_cpus1.data         4569                       # Write bandwidth from this memory (bytes/s)
system.mem_ctrls.bw_write::total                 4569                       # Write bandwidth from this memory (bytes/s)
system.mem_ctrls.bw_total::.cpu0.inst            2285                       # Total bandwidth to/from this memory (bytes/s)
system.mem_ctrls.bw_total::.cpu0.dcache.prefetcher       162204                       # Total bandwidth to/from this memory (bytes/s)
system.mem_ctrls.bw_total::.cpu1.inst            2285                       # Total bandwidth to/from this memory (bytes/s)
system.mem_ctrls.bw_total::.cpu1.data            2285                       # Total bandwidth to/from this memory (bytes/s)
system.mem_ctrls.bw_total::.cpu1.dcache.prefetcher        29699                       # Total bandwidth to/from this memory (bytes/s)
system.mem_ctrls.bw_total::.switch_cpus0.inst       733344                       # Total bandwidth to/from this memory (bytes/s)
system.mem_ctrls.bw_total::.switch_cpus0.data       358676                       # Total bandwidth to/from this memory (bytes/s)
system.mem_ctrls.bw_total::.switch_cpus1.inst       452343                       # Total bandwidth to/from this memory (bytes/s)
system.mem_ctrls.bw_total::.switch_cpus1.data      2707203                       # Total bandwidth to/from this memory (bytes/s)
system.mem_ctrls.bw_total::.switch_cpus_10.inst      1359313                       # Total bandwidth to/from this memory (bytes/s)
system.mem_ctrls.bw_total::.switch_cpus_10.data       932100                       # Total bandwidth to/from this memory (bytes/s)
system.mem_ctrls.bw_total::.switch_cpus_11.inst       201041                       # Total bandwidth to/from this memory (bytes/s)
system.mem_ctrls.bw_total::.switch_cpus_11.data     65841016                       # Total bandwidth to/from this memory (bytes/s)
system.mem_ctrls.bw_total::total             72783794                       # Total bandwidth to/from this memory (bytes/s)
system.cpu_clk_domain.clock                       417                       # Clock period in ticks

---------- End Simulation Statistics   ----------
