
---------- Begin Simulation Statistics ----------
final_tick                               1318913689188                       # Number of ticks from beginning of simulation (restored from checkpoints and never reset)
host_inst_rate                                 133199                       # Simulator instruction rate (inst/s)
host_mem_usage                                4451244                       # Number of bytes of host memory used
host_op_rate                                   269633                       # Simulator op (including micro ops) rate (op/s)
host_seconds                                   393.27                       # Real time elapsed on the host
host_tick_rate                               64998843                       # Simulator tick rate (ticks/s)
sim_freq                                 1000000000000                       # Frequency of simulated ticks
sim_insts                                    52382752                       # Number of instructions simulated
sim_ops                                     106037958                       # Number of ops (including micro ops) simulated
sim_seconds                                  0.025562                       # Number of seconds simulated
sim_ticks                                 25561981572                       # Number of ticks simulated
system.cpu0.Branches                                1                       # Number of branches fetched
system.cpu0.committedInsts                          2                       # Number of instructions committed
system.cpu0.committedOps                            4                       # Number of ops (including micro ops) committed
system.cpu0.dtb.rdAccesses                          0                       # TLB accesses on read requests
system.cpu0.dtb.rdMisses                            0                       # TLB misses on read requests
system.cpu0.dtb.wrAccesses                          0                       # TLB accesses on write requests
system.cpu0.dtb.wrMisses                            0                       # TLB misses on write requests
system.cpu0.idle_fraction                           0                       # Percentage of idle cycles
system.cpu0.itb.rdAccesses                          0                       # TLB accesses on read requests
system.cpu0.itb.rdMisses                            0                       # TLB misses on read requests
system.cpu0.itb.wrAccesses                          2                       # TLB accesses on write requests
system.cpu0.itb.wrMisses                            0                       # TLB misses on write requests
system.cpu0.not_idle_fraction                       1                       # Percentage of non-idle cycles
system.cpu0.numCycles                               4                       # number of cpu cycles simulated
system.cpu0.numWorkItemsCompleted                   0                       # number of work items this cpu completed
system.cpu0.numWorkItemsStarted                     0                       # number of work items this cpu started
system.cpu0.num_busy_cycles                         4                       # Number of busy cycles
system.cpu0.num_cc_register_reads                   6                       # number of times the CC registers were read
system.cpu0.num_cc_register_writes                  2                       # number of times the CC registers were written
system.cpu0.num_conditional_control_insts            1                       # number of instructions that are conditional controls
system.cpu0.num_fp_alu_accesses                     0                       # Number of float alu accesses
system.cpu0.num_fp_insts                            0                       # number of float instructions
system.cpu0.num_fp_register_reads                   0                       # number of times the floating registers were read
system.cpu0.num_fp_register_writes                  0                       # number of times the floating registers were written
system.cpu0.num_func_calls                          0                       # number of times a function call or return occured
system.cpu0.num_idle_cycles                         0                       # Number of idle cycles
system.cpu0.num_int_alu_accesses                    4                       # Number of integer alu accesses
system.cpu0.num_int_insts                           4                       # number of integer instructions
system.cpu0.num_int_register_reads                  6                       # number of times the integer registers were read
system.cpu0.num_int_register_writes                 3                       # number of times the integer registers were written
system.cpu0.num_load_insts                          0                       # Number of load instructions
system.cpu0.num_mem_refs                            0                       # number of memory refs
system.cpu0.num_store_insts                         0                       # Number of store instructions
system.cpu0.num_vec_alu_accesses                    0                       # Number of vector alu accesses
system.cpu0.num_vec_insts                           0                       # number of vector instructions
system.cpu0.num_vec_register_reads                  0                       # number of times the vector registers were read
system.cpu0.num_vec_register_writes                 0                       # number of times the vector registers were written
system.cpu0.op_class::No_OpClass                    0      0.00%      0.00% # Class of executed instruction
system.cpu0.op_class::IntAlu                        4    100.00%    100.00% # Class of executed instruction
system.cpu0.op_class::IntMult                       0      0.00%    100.00% # Class of executed instruction
system.cpu0.op_class::IntDiv                        0      0.00%    100.00% # Class of executed instruction
system.cpu0.op_class::FloatAdd                      0      0.00%    100.00% # Class of executed instruction
system.cpu0.op_class::FloatCmp                      0      0.00%    100.00% # Class of executed instruction
system.cpu0.op_class::FloatCvt                      0      0.00%    100.00% # Class of executed instruction
system.cpu0.op_class::FloatMult                     0      0.00%    100.00% # Class of executed instruction
system.cpu0.op_class::FloatMultAcc                  0      0.00%    100.00% # Class of executed instruction
system.cpu0.op_class::FloatDiv                      0      0.00%    100.00% # Class of executed instruction
system.cpu0.op_class::FloatMisc                     0      0.00%    100.00% # Class of executed instruction
system.cpu0.op_class::FloatSqrt                     0      0.00%    100.00% # Class of executed instruction
system.cpu0.op_class::SimdAdd                       0      0.00%    100.00% # Class of executed instruction
system.cpu0.op_class::SimdAddAcc                    0      0.00%    100.00% # Class of executed instruction
system.cpu0.op_class::SimdAlu                       0      0.00%    100.00% # Class of executed instruction
system.cpu0.op_class::SimdCmp                       0      0.00%    100.00% # Class of executed instruction
system.cpu0.op_class::SimdCvt                       0      0.00%    100.00% # Class of executed instruction
system.cpu0.op_class::SimdMisc                      0      0.00%    100.00% # Class of executed instruction
system.cpu0.op_class::SimdMult                      0      0.00%    100.00% # Class of executed instruction
system.cpu0.op_class::SimdMultAcc                   0      0.00%    100.00% # Class of executed instruction
system.cpu0.op_class::SimdShift                     0      0.00%    100.00% # Class of executed instruction
system.cpu0.op_class::SimdShiftAcc                  0      0.00%    100.00% # Class of executed instruction
system.cpu0.op_class::SimdDiv                       0      0.00%    100.00% # Class of executed instruction
system.cpu0.op_class::SimdSqrt                      0      0.00%    100.00% # Class of executed instruction
system.cpu0.op_class::SimdFloatAdd                  0      0.00%    100.00% # Class of executed instruction
system.cpu0.op_class::SimdFloatAlu                  0      0.00%    100.00% # Class of executed instruction
system.cpu0.op_class::SimdFloatCmp                  0      0.00%    100.00% # Class of executed instruction
system.cpu0.op_class::SimdFloatCvt                  0      0.00%    100.00% # Class of executed instruction
system.cpu0.op_class::SimdFloatDiv                  0      0.00%    100.00% # Class of executed instruction
system.cpu0.op_class::SimdFloatMisc                 0      0.00%    100.00% # Class of executed instruction
system.cpu0.op_class::SimdFloatMult                 0      0.00%    100.00% # Class of executed instruction
system.cpu0.op_class::SimdFloatMultAcc              0      0.00%    100.00% # Class of executed instruction
system.cpu0.op_class::SimdFloatSqrt                 0      0.00%    100.00% # Class of executed instruction
system.cpu0.op_class::SimdReduceAdd                 0      0.00%    100.00% # Class of executed instruction
system.cpu0.op_class::SimdReduceAlu                 0      0.00%    100.00% # Class of executed instruction
system.cpu0.op_class::SimdReduceCmp                 0      0.00%    100.00% # Class of executed instruction
system.cpu0.op_class::SimdFloatReduceAdd            0      0.00%    100.00% # Class of executed instruction
system.cpu0.op_class::SimdFloatReduceCmp            0      0.00%    100.00% # Class of executed instruction
system.cpu0.op_class::SimdAes                       0      0.00%    100.00% # Class of executed instruction
system.cpu0.op_class::SimdAesMix                    0      0.00%    100.00% # Class of executed instruction
system.cpu0.op_class::SimdSha1Hash                  0      0.00%    100.00% # Class of executed instruction
system.cpu0.op_class::SimdSha1Hash2                 0      0.00%    100.00% # Class of executed instruction
system.cpu0.op_class::SimdSha256Hash                0      0.00%    100.00% # Class of executed instruction
system.cpu0.op_class::SimdSha256Hash2               0      0.00%    100.00% # Class of executed instruction
system.cpu0.op_class::SimdShaSigma2                 0      0.00%    100.00% # Class of executed instruction
system.cpu0.op_class::SimdShaSigma3                 0      0.00%    100.00% # Class of executed instruction
system.cpu0.op_class::SimdPredAlu                   0      0.00%    100.00% # Class of executed instruction
system.cpu0.op_class::MemRead                       0      0.00%    100.00% # Class of executed instruction
system.cpu0.op_class::MemWrite                      0      0.00%    100.00% # Class of executed instruction
system.cpu0.op_class::FloatMemRead                  0      0.00%    100.00% # Class of executed instruction
system.cpu0.op_class::FloatMemWrite                 0      0.00%    100.00% # Class of executed instruction
system.cpu0.op_class::IprAccess                     0      0.00%    100.00% # Class of executed instruction
system.cpu0.op_class::InstPrefetch                  0      0.00%    100.00% # Class of executed instruction
system.cpu0.op_class::total                         4                       # Class of executed instruction
system.cpu0.toL2Bus.snoop_filter.hit_multi_requests            3                       # Number of requests hitting in the snoop filter with multiple (>1) holders of the requested data.
system.cpu0.toL2Bus.snoop_filter.hit_multi_snoops            0                       # Number of snoops hitting in the snoop filter with multiple (>1) holders of the requested data.
system.cpu0.toL2Bus.snoop_filter.hit_single_requests         9097                       # Number of requests hitting in the snoop filter with a single holder of the requested data.
system.cpu0.toL2Bus.snoop_filter.hit_single_snoops            0                       # Number of snoops hitting in the snoop filter with a single holder of the requested data.
system.cpu0.toL2Bus.snoop_filter.tot_requests        19186                       # Total number of requests made to the snoop filter.
system.cpu0.toL2Bus.snoop_filter.tot_snoops            0                       # Total number of snoops made to the snoop filter.
system.cpu0.toL3Bus.snoop_filter.hit_multi_requests            0                       # Number of requests hitting in the snoop filter with multiple (>1) holders of the requested data.
system.cpu0.toL3Bus.snoop_filter.hit_multi_snoops            0                       # Number of snoops hitting in the snoop filter with multiple (>1) holders of the requested data.
system.cpu0.toL3Bus.snoop_filter.hit_single_requests            0                       # Number of requests hitting in the snoop filter with a single holder of the requested data.
system.cpu0.toL3Bus.snoop_filter.hit_single_snoops            0                       # Number of snoops hitting in the snoop filter with a single holder of the requested data.
system.cpu0.toL3Bus.snoop_filter.tot_requests         1529                       # Total number of requests made to the snoop filter.
system.cpu0.toL3Bus.snoop_filter.tot_snoops            0                       # Total number of snoops made to the snoop filter.
system.cpu0.workload.numSyscalls                    6                       # Number of system calls
system.cpu1.Branches                                1                       # Number of branches fetched
system.cpu1.committedInsts                          1                       # Number of instructions committed
system.cpu1.committedOps                            5                       # Number of ops (including micro ops) committed
system.cpu1.dtb.rdAccesses                          0                       # TLB accesses on read requests
system.cpu1.dtb.rdMisses                            0                       # TLB misses on read requests
system.cpu1.dtb.wrAccesses                          1                       # TLB accesses on write requests
system.cpu1.dtb.wrMisses                            0                       # TLB misses on write requests
system.cpu1.idle_fraction                           0                       # Percentage of idle cycles
system.cpu1.itb.rdAccesses                          0                       # TLB accesses on read requests
system.cpu1.itb.rdMisses                            0                       # TLB misses on read requests
system.cpu1.itb.wrAccesses                          2                       # TLB accesses on write requests
system.cpu1.itb.wrMisses                            0                       # TLB misses on write requests
system.cpu1.not_idle_fraction                       1                       # Percentage of non-idle cycles
system.cpu1.numCycles                               6                       # number of cpu cycles simulated
system.cpu1.numWorkItemsCompleted                   0                       # number of work items this cpu completed
system.cpu1.numWorkItemsStarted                     0                       # number of work items this cpu started
system.cpu1.num_busy_cycles                         6                       # Number of busy cycles
system.cpu1.num_conditional_control_insts            0                       # number of instructions that are conditional controls
system.cpu1.num_fp_alu_accesses                     0                       # Number of float alu accesses
system.cpu1.num_fp_insts                            0                       # number of float instructions
system.cpu1.num_fp_register_reads                   0                       # number of times the floating registers were read
system.cpu1.num_fp_register_writes                  0                       # number of times the floating registers were written
system.cpu1.num_func_calls                          1                       # number of times a function call or return occured
system.cpu1.num_idle_cycles                         0                       # Number of idle cycles
system.cpu1.num_int_alu_accesses                    5                       # Number of integer alu accesses
system.cpu1.num_int_insts                           5                       # number of integer instructions
system.cpu1.num_int_register_reads                  9                       # number of times the integer registers were read
system.cpu1.num_int_register_writes                 3                       # number of times the integer registers were written
system.cpu1.num_load_insts                          0                       # Number of load instructions
system.cpu1.num_mem_refs                            1                       # number of memory refs
system.cpu1.num_store_insts                         1                       # Number of store instructions
system.cpu1.num_vec_alu_accesses                    0                       # Number of vector alu accesses
system.cpu1.num_vec_insts                           0                       # number of vector instructions
system.cpu1.num_vec_register_reads                  0                       # number of times the vector registers were read
system.cpu1.num_vec_register_writes                 0                       # number of times the vector registers were written
system.cpu1.op_class::No_OpClass                    0      0.00%      0.00% # Class of executed instruction
system.cpu1.op_class::IntAlu                        4     80.00%     80.00% # Class of executed instruction
system.cpu1.op_class::IntMult                       0      0.00%     80.00% # Class of executed instruction
system.cpu1.op_class::IntDiv                        0      0.00%     80.00% # Class of executed instruction
system.cpu1.op_class::FloatAdd                      0      0.00%     80.00% # Class of executed instruction
system.cpu1.op_class::FloatCmp                      0      0.00%     80.00% # Class of executed instruction
system.cpu1.op_class::FloatCvt                      0      0.00%     80.00% # Class of executed instruction
system.cpu1.op_class::FloatMult                     0      0.00%     80.00% # Class of executed instruction
system.cpu1.op_class::FloatMultAcc                  0      0.00%     80.00% # Class of executed instruction
system.cpu1.op_class::FloatDiv                      0      0.00%     80.00% # Class of executed instruction
system.cpu1.op_class::FloatMisc                     0      0.00%     80.00% # Class of executed instruction
system.cpu1.op_class::FloatSqrt                     0      0.00%     80.00% # Class of executed instruction
system.cpu1.op_class::SimdAdd                       0      0.00%     80.00% # Class of executed instruction
system.cpu1.op_class::SimdAddAcc                    0      0.00%     80.00% # Class of executed instruction
system.cpu1.op_class::SimdAlu                       0      0.00%     80.00% # Class of executed instruction
system.cpu1.op_class::SimdCmp                       0      0.00%     80.00% # Class of executed instruction
system.cpu1.op_class::SimdCvt                       0      0.00%     80.00% # Class of executed instruction
system.cpu1.op_class::SimdMisc                      0      0.00%     80.00% # Class of executed instruction
system.cpu1.op_class::SimdMult                      0      0.00%     80.00% # Class of executed instruction
system.cpu1.op_class::SimdMultAcc                   0      0.00%     80.00% # Class of executed instruction
system.cpu1.op_class::SimdShift                     0      0.00%     80.00% # Class of executed instruction
system.cpu1.op_class::SimdShiftAcc                  0      0.00%     80.00% # Class of executed instruction
system.cpu1.op_class::SimdDiv                       0      0.00%     80.00% # Class of executed instruction
system.cpu1.op_class::SimdSqrt                      0      0.00%     80.00% # Class of executed instruction
system.cpu1.op_class::SimdFloatAdd                  0      0.00%     80.00% # Class of executed instruction
system.cpu1.op_class::SimdFloatAlu                  0      0.00%     80.00% # Class of executed instruction
system.cpu1.op_class::SimdFloatCmp                  0      0.00%     80.00% # Class of executed instruction
system.cpu1.op_class::SimdFloatCvt                  0      0.00%     80.00% # Class of executed instruction
system.cpu1.op_class::SimdFloatDiv                  0      0.00%     80.00% # Class of executed instruction
system.cpu1.op_class::SimdFloatMisc                 0      0.00%     80.00% # Class of executed instruction
system.cpu1.op_class::SimdFloatMult                 0      0.00%     80.00% # Class of executed instruction
system.cpu1.op_class::SimdFloatMultAcc              0      0.00%     80.00% # Class of executed instruction
system.cpu1.op_class::SimdFloatSqrt                 0      0.00%     80.00% # Class of executed instruction
system.cpu1.op_class::SimdReduceAdd                 0      0.00%     80.00% # Class of executed instruction
system.cpu1.op_class::SimdReduceAlu                 0      0.00%     80.00% # Class of executed instruction
system.cpu1.op_class::SimdReduceCmp                 0      0.00%     80.00% # Class of executed instruction
system.cpu1.op_class::SimdFloatReduceAdd            0      0.00%     80.00% # Class of executed instruction
system.cpu1.op_class::SimdFloatReduceCmp            0      0.00%     80.00% # Class of executed instruction
system.cpu1.op_class::SimdAes                       0      0.00%     80.00% # Class of executed instruction
system.cpu1.op_class::SimdAesMix                    0      0.00%     80.00% # Class of executed instruction
system.cpu1.op_class::SimdSha1Hash                  0      0.00%     80.00% # Class of executed instruction
system.cpu1.op_class::SimdSha1Hash2                 0      0.00%     80.00% # Class of executed instruction
system.cpu1.op_class::SimdSha256Hash                0      0.00%     80.00% # Class of executed instruction
system.cpu1.op_class::SimdSha256Hash2               0      0.00%     80.00% # Class of executed instruction
system.cpu1.op_class::SimdShaSigma2                 0      0.00%     80.00% # Class of executed instruction
system.cpu1.op_class::SimdShaSigma3                 0      0.00%     80.00% # Class of executed instruction
system.cpu1.op_class::SimdPredAlu                   0      0.00%     80.00% # Class of executed instruction
system.cpu1.op_class::MemRead                       0      0.00%     80.00% # Class of executed instruction
system.cpu1.op_class::MemWrite                      1     20.00%    100.00% # Class of executed instruction
system.cpu1.op_class::FloatMemRead                  0      0.00%    100.00% # Class of executed instruction
system.cpu1.op_class::FloatMemWrite                 0      0.00%    100.00% # Class of executed instruction
system.cpu1.op_class::IprAccess                     0      0.00%    100.00% # Class of executed instruction
system.cpu1.op_class::InstPrefetch                  0      0.00%    100.00% # Class of executed instruction
system.cpu1.op_class::total                         5                       # Class of executed instruction
system.cpu1.toL2Bus.snoop_filter.hit_multi_requests           42                       # Number of requests hitting in the snoop filter with multiple (>1) holders of the requested data.
system.cpu1.toL2Bus.snoop_filter.hit_multi_snoops            0                       # Number of snoops hitting in the snoop filter with multiple (>1) holders of the requested data.
system.cpu1.toL2Bus.snoop_filter.hit_single_requests        56186                       # Number of requests hitting in the snoop filter with a single holder of the requested data.
system.cpu1.toL2Bus.snoop_filter.hit_single_snoops          502                       # Number of snoops hitting in the snoop filter with a single holder of the requested data.
system.cpu1.toL2Bus.snoop_filter.tot_requests       113170                       # Total number of requests made to the snoop filter.
system.cpu1.toL2Bus.snoop_filter.tot_snoops          502                       # Total number of snoops made to the snoop filter.
system.cpu1.toL3Bus.snoop_filter.hit_multi_requests            0                       # Number of requests hitting in the snoop filter with multiple (>1) holders of the requested data.
system.cpu1.toL3Bus.snoop_filter.hit_multi_snoops            0                       # Number of snoops hitting in the snoop filter with multiple (>1) holders of the requested data.
system.cpu1.toL3Bus.snoop_filter.hit_single_requests        25927                       # Number of requests hitting in the snoop filter with a single holder of the requested data.
system.cpu1.toL3Bus.snoop_filter.hit_single_snoops          240                       # Number of snoops hitting in the snoop filter with a single holder of the requested data.
system.cpu1.toL3Bus.snoop_filter.tot_requests        56275                       # Total number of requests made to the snoop filter.
system.cpu1.toL3Bus.snoop_filter.tot_snoops          240                       # Total number of snoops made to the snoop filter.
system.cpu1.workload.numSyscalls                16982                       # Number of system calls
system.membus.snoop_filter.hit_multi_requests            0                       # Number of requests hitting in the snoop filter with multiple (>1) holders of the requested data.
system.membus.snoop_filter.hit_multi_snoops            0                       # Number of snoops hitting in the snoop filter with multiple (>1) holders of the requested data.
system.membus.snoop_filter.hit_single_requests          603                       # Number of requests hitting in the snoop filter with a single holder of the requested data.
system.membus.snoop_filter.hit_single_snoops            0                       # Number of snoops hitting in the snoop filter with a single holder of the requested data.
system.membus.snoop_filter.tot_requests         32463                       # Total number of requests made to the snoop filter.
system.membus.snoop_filter.tot_snoops               0                       # Total number of snoops made to the snoop filter.
system.switch_cpus0.Branches                   243471                       # Number of branches fetched
system.switch_cpus0.committedInsts            1000001                       # Number of instructions committed
system.switch_cpus0.committedOps              1964282                       # Number of ops (including micro ops) committed
system.switch_cpus0.dtb.rdAccesses             258686                       # TLB accesses on read requests
system.switch_cpus0.dtb.rdMisses                   28                       # TLB misses on read requests
system.switch_cpus0.dtb.wrAccesses             164196                       # TLB accesses on write requests
system.switch_cpus0.dtb.wrMisses                    2                       # TLB misses on write requests
system.switch_cpus0.idle_fraction            0.000000                       # Percentage of idle cycles
system.switch_cpus0.itb.rdAccesses                  0                       # TLB accesses on read requests
system.switch_cpus0.itb.rdMisses                    0                       # TLB misses on read requests
system.switch_cpus0.itb.wrAccesses            1341162                       # TLB accesses on write requests
system.switch_cpus0.itb.wrMisses                   36                       # TLB misses on write requests
system.switch_cpus0.not_idle_fraction        1.000000                       # Percentage of non-idle cycles
system.switch_cpus0.numCycles                 5446152                       # number of cpu cycles simulated
system.switch_cpus0.numWorkItemsCompleted            0                       # number of work items this cpu completed
system.switch_cpus0.numWorkItemsStarted             0                       # number of work items this cpu started
system.switch_cpus0.num_busy_cycles      5446151.466932                       # Number of busy cycles
system.switch_cpus0.num_cc_register_reads      1108773                       # number of times the CC registers were read
system.switch_cpus0.num_cc_register_writes       600380                       # number of times the CC registers were written
system.switch_cpus0.num_conditional_control_insts       166239                       # number of instructions that are conditional controls
system.switch_cpus0.num_fp_alu_accesses         26744                       # Number of float alu accesses
system.switch_cpus0.num_fp_insts                26744                       # number of float instructions
system.switch_cpus0.num_fp_register_reads        26836                       # number of times the floating registers were read
system.switch_cpus0.num_fp_register_writes        10468                       # number of times the floating registers were written
system.switch_cpus0.num_func_calls              52674                       # number of times a function call or return occured
system.switch_cpus0.num_idle_cycles          0.533068                       # Number of idle cycles
system.switch_cpus0.num_int_alu_accesses      1946738                       # Number of integer alu accesses
system.switch_cpus0.num_int_insts             1946738                       # number of integer instructions
system.switch_cpus0.num_int_register_reads      3840519                       # number of times the integer registers were read
system.switch_cpus0.num_int_register_writes      1561119                       # number of times the integer registers were written
system.switch_cpus0.num_load_insts             258128                       # Number of load instructions
system.switch_cpus0.num_mem_refs               422138                       # number of memory refs
system.switch_cpus0.num_store_insts            164010                       # Number of store instructions
system.switch_cpus0.num_vec_alu_accesses            0                       # Number of vector alu accesses
system.switch_cpus0.num_vec_insts                   0                       # number of vector instructions
system.switch_cpus0.num_vec_register_reads            0                       # number of times the vector registers were read
system.switch_cpus0.num_vec_register_writes            0                       # number of times the vector registers were written
system.switch_cpus0.op_class::No_OpClass        10944      0.56%      0.56% # Class of executed instruction
system.switch_cpus0.op_class::IntAlu          1515533     77.15%     77.71% # Class of executed instruction
system.switch_cpus0.op_class::IntMult            1220      0.06%     77.77% # Class of executed instruction
system.switch_cpus0.op_class::IntDiv             7847      0.40%     78.17% # Class of executed instruction
system.switch_cpus0.op_class::FloatAdd           1320      0.07%     78.24% # Class of executed instruction
system.switch_cpus0.op_class::FloatCmp              0      0.00%     78.24% # Class of executed instruction
system.switch_cpus0.op_class::FloatCvt              0      0.00%     78.24% # Class of executed instruction
system.switch_cpus0.op_class::FloatMult             0      0.00%     78.24% # Class of executed instruction
system.switch_cpus0.op_class::FloatMultAcc            0      0.00%     78.24% # Class of executed instruction
system.switch_cpus0.op_class::FloatDiv              0      0.00%     78.24% # Class of executed instruction
system.switch_cpus0.op_class::FloatMisc             0      0.00%     78.24% # Class of executed instruction
system.switch_cpus0.op_class::FloatSqrt             0      0.00%     78.24% # Class of executed instruction
system.switch_cpus0.op_class::SimdAdd               0      0.00%     78.24% # Class of executed instruction
system.switch_cpus0.op_class::SimdAddAcc            0      0.00%     78.24% # Class of executed instruction
system.switch_cpus0.op_class::SimdAlu            2112      0.11%     78.35% # Class of executed instruction
system.switch_cpus0.op_class::SimdCmp               0      0.00%     78.35% # Class of executed instruction
system.switch_cpus0.op_class::SimdCvt             528      0.03%     78.37% # Class of executed instruction
system.switch_cpus0.op_class::SimdMisc           2376      0.12%     78.50% # Class of executed instruction
system.switch_cpus0.op_class::SimdMult              0      0.00%     78.50% # Class of executed instruction
system.switch_cpus0.op_class::SimdMultAcc            0      0.00%     78.50% # Class of executed instruction
system.switch_cpus0.op_class::SimdShift             0      0.00%     78.50% # Class of executed instruction
system.switch_cpus0.op_class::SimdShiftAcc            0      0.00%     78.50% # Class of executed instruction
system.switch_cpus0.op_class::SimdDiv               0      0.00%     78.50% # Class of executed instruction
system.switch_cpus0.op_class::SimdSqrt              0      0.00%     78.50% # Class of executed instruction
system.switch_cpus0.op_class::SimdFloatAdd          264      0.01%     78.51% # Class of executed instruction
system.switch_cpus0.op_class::SimdFloatAlu            0      0.00%     78.51% # Class of executed instruction
system.switch_cpus0.op_class::SimdFloatCmp            0      0.00%     78.51% # Class of executed instruction
system.switch_cpus0.op_class::SimdFloatCvt            0      0.00%     78.51% # Class of executed instruction
system.switch_cpus0.op_class::SimdFloatDiv            0      0.00%     78.51% # Class of executed instruction
system.switch_cpus0.op_class::SimdFloatMisc            0      0.00%     78.51% # Class of executed instruction
system.switch_cpus0.op_class::SimdFloatMult            0      0.00%     78.51% # Class of executed instruction
system.switch_cpus0.op_class::SimdFloatMultAcc            0      0.00%     78.51% # Class of executed instruction
system.switch_cpus0.op_class::SimdFloatSqrt            0      0.00%     78.51% # Class of executed instruction
system.switch_cpus0.op_class::SimdReduceAdd            0      0.00%     78.51% # Class of executed instruction
system.switch_cpus0.op_class::SimdReduceAlu            0      0.00%     78.51% # Class of executed instruction
system.switch_cpus0.op_class::SimdReduceCmp            0      0.00%     78.51% # Class of executed instruction
system.switch_cpus0.op_class::SimdFloatReduceAdd            0      0.00%     78.51% # Class of executed instruction
system.switch_cpus0.op_class::SimdFloatReduceCmp            0      0.00%     78.51% # Class of executed instruction
system.switch_cpus0.op_class::SimdAes               0      0.00%     78.51% # Class of executed instruction
system.switch_cpus0.op_class::SimdAesMix            0      0.00%     78.51% # Class of executed instruction
system.switch_cpus0.op_class::SimdSha1Hash            0      0.00%     78.51% # Class of executed instruction
system.switch_cpus0.op_class::SimdSha1Hash2            0      0.00%     78.51% # Class of executed instruction
system.switch_cpus0.op_class::SimdSha256Hash            0      0.00%     78.51% # Class of executed instruction
system.switch_cpus0.op_class::SimdSha256Hash2            0      0.00%     78.51% # Class of executed instruction
system.switch_cpus0.op_class::SimdShaSigma2            0      0.00%     78.51% # Class of executed instruction
system.switch_cpus0.op_class::SimdShaSigma3            0      0.00%     78.51% # Class of executed instruction
system.switch_cpus0.op_class::SimdPredAlu            0      0.00%     78.51% # Class of executed instruction
system.switch_cpus0.op_class::MemRead          253996     12.93%     91.44% # Class of executed instruction
system.switch_cpus0.op_class::MemWrite         148262      7.55%     98.99% # Class of executed instruction
system.switch_cpus0.op_class::FloatMemRead         4132      0.21%     99.20% # Class of executed instruction
system.switch_cpus0.op_class::FloatMemWrite        15748      0.80%    100.00% # Class of executed instruction
system.switch_cpus0.op_class::IprAccess             0      0.00%    100.00% # Class of executed instruction
system.switch_cpus0.op_class::InstPrefetch            0      0.00%    100.00% # Class of executed instruction
system.switch_cpus0.op_class::total           1964282                       # Class of executed instruction
system.switch_cpus1.Branches                   219986                       # Number of branches fetched
system.switch_cpus1.committedInsts             978428                       # Number of instructions committed
system.switch_cpus1.committedOps              1980643                       # Number of ops (including micro ops) committed
system.switch_cpus1.dtb.rdAccesses             285613                       # TLB accesses on read requests
system.switch_cpus1.dtb.rdMisses                   40                       # TLB misses on read requests
system.switch_cpus1.dtb.wrAccesses             208616                       # TLB accesses on write requests
system.switch_cpus1.dtb.wrMisses                    3                       # TLB misses on write requests
system.switch_cpus1.idle_fraction            0.000000                       # Percentage of idle cycles
system.switch_cpus1.itb.rdAccesses                  0                       # TLB accesses on read requests
system.switch_cpus1.itb.rdMisses                    0                       # TLB misses on read requests
system.switch_cpus1.itb.wrAccesses            1240406                       # TLB accesses on write requests
system.switch_cpus1.itb.wrMisses                   27                       # TLB misses on write requests
system.switch_cpus1.not_idle_fraction        1.000000                       # Percentage of non-idle cycles
system.switch_cpus1.numCycles                 5446152                       # number of cpu cycles simulated
system.switch_cpus1.numWorkItemsCompleted            0                       # number of work items this cpu completed
system.switch_cpus1.numWorkItemsStarted             0                       # number of work items this cpu started
system.switch_cpus1.num_busy_cycles      5446151.466932                       # Number of busy cycles
system.switch_cpus1.num_cc_register_reads       820853                       # number of times the CC registers were read
system.switch_cpus1.num_cc_register_writes       439930                       # number of times the CC registers were written
system.switch_cpus1.num_conditional_control_insts       100256                       # number of instructions that are conditional controls
system.switch_cpus1.num_fp_alu_accesses         16079                       # Number of float alu accesses
system.switch_cpus1.num_fp_insts                16079                       # number of float instructions
system.switch_cpus1.num_fp_register_reads        26993                       # number of times the floating registers were read
system.switch_cpus1.num_fp_register_writes        14143                       # number of times the floating registers were written
system.switch_cpus1.num_func_calls             103754                       # number of times a function call or return occured
system.switch_cpus1.num_idle_cycles          0.533068                       # Number of idle cycles
system.switch_cpus1.num_int_alu_accesses      1960293                       # Number of integer alu accesses
system.switch_cpus1.num_int_insts             1960293                       # number of integer instructions
system.switch_cpus1.num_int_register_reads      4155379                       # number of times the integer registers were read
system.switch_cpus1.num_int_register_writes      1537820                       # number of times the integer registers were written
system.switch_cpus1.num_load_insts             285611                       # Number of load instructions
system.switch_cpus1.num_mem_refs               494225                       # number of memory refs
system.switch_cpus1.num_store_insts            208614                       # Number of store instructions
system.switch_cpus1.num_vec_alu_accesses            0                       # Number of vector alu accesses
system.switch_cpus1.num_vec_insts                   0                       # number of vector instructions
system.switch_cpus1.num_vec_register_reads            0                       # number of times the vector registers were read
system.switch_cpus1.num_vec_register_writes            0                       # number of times the vector registers were written
system.switch_cpus1.op_class::No_OpClass         6621      0.33%      0.33% # Class of executed instruction
system.switch_cpus1.op_class::IntAlu          1465063     73.97%     74.30% # Class of executed instruction
system.switch_cpus1.op_class::IntMult             920      0.05%     74.35% # Class of executed instruction
system.switch_cpus1.op_class::IntDiv             2240      0.11%     74.46% # Class of executed instruction
system.switch_cpus1.op_class::FloatAdd            641      0.03%     74.50% # Class of executed instruction
system.switch_cpus1.op_class::FloatCmp              0      0.00%     74.50% # Class of executed instruction
system.switch_cpus1.op_class::FloatCvt              0      0.00%     74.50% # Class of executed instruction
system.switch_cpus1.op_class::FloatMult             0      0.00%     74.50% # Class of executed instruction
system.switch_cpus1.op_class::FloatMultAcc            0      0.00%     74.50% # Class of executed instruction
system.switch_cpus1.op_class::FloatDiv              0      0.00%     74.50% # Class of executed instruction
system.switch_cpus1.op_class::FloatMisc             0      0.00%     74.50% # Class of executed instruction
system.switch_cpus1.op_class::FloatSqrt             0      0.00%     74.50% # Class of executed instruction
system.switch_cpus1.op_class::SimdAdd               0      0.00%     74.50% # Class of executed instruction
system.switch_cpus1.op_class::SimdAddAcc            0      0.00%     74.50% # Class of executed instruction
system.switch_cpus1.op_class::SimdAlu            2572      0.13%     74.63% # Class of executed instruction
system.switch_cpus1.op_class::SimdCmp               0      0.00%     74.63% # Class of executed instruction
system.switch_cpus1.op_class::SimdCvt            2578      0.13%     74.76% # Class of executed instruction
system.switch_cpus1.op_class::SimdMisc           5783      0.29%     75.05% # Class of executed instruction
system.switch_cpus1.op_class::SimdMult              0      0.00%     75.05% # Class of executed instruction
system.switch_cpus1.op_class::SimdMultAcc            0      0.00%     75.05% # Class of executed instruction
system.switch_cpus1.op_class::SimdShift             0      0.00%     75.05% # Class of executed instruction
system.switch_cpus1.op_class::SimdShiftAcc            0      0.00%     75.05% # Class of executed instruction
system.switch_cpus1.op_class::SimdDiv               0      0.00%     75.05% # Class of executed instruction
system.switch_cpus1.op_class::SimdSqrt              0      0.00%     75.05% # Class of executed instruction
system.switch_cpus1.op_class::SimdFloatAdd            0      0.00%     75.05% # Class of executed instruction
system.switch_cpus1.op_class::SimdFloatAlu            0      0.00%     75.05% # Class of executed instruction
system.switch_cpus1.op_class::SimdFloatCmp            0      0.00%     75.05% # Class of executed instruction
system.switch_cpus1.op_class::SimdFloatCvt            0      0.00%     75.05% # Class of executed instruction
system.switch_cpus1.op_class::SimdFloatDiv            0      0.00%     75.05% # Class of executed instruction
system.switch_cpus1.op_class::SimdFloatMisc            0      0.00%     75.05% # Class of executed instruction
system.switch_cpus1.op_class::SimdFloatMult            0      0.00%     75.05% # Class of executed instruction
system.switch_cpus1.op_class::SimdFloatMultAcc            0      0.00%     75.05% # Class of executed instruction
system.switch_cpus1.op_class::SimdFloatSqrt            0      0.00%     75.05% # Class of executed instruction
system.switch_cpus1.op_class::SimdReduceAdd            0      0.00%     75.05% # Class of executed instruction
system.switch_cpus1.op_class::SimdReduceAlu            0      0.00%     75.05% # Class of executed instruction
system.switch_cpus1.op_class::SimdReduceCmp            0      0.00%     75.05% # Class of executed instruction
system.switch_cpus1.op_class::SimdFloatReduceAdd            0      0.00%     75.05% # Class of executed instruction
system.switch_cpus1.op_class::SimdFloatReduceCmp            0      0.00%     75.05% # Class of executed instruction
system.switch_cpus1.op_class::SimdAes               0      0.00%     75.05% # Class of executed instruction
system.switch_cpus1.op_class::SimdAesMix            0      0.00%     75.05% # Class of executed instruction
system.switch_cpus1.op_class::SimdSha1Hash            0      0.00%     75.05% # Class of executed instruction
system.switch_cpus1.op_class::SimdSha1Hash2            0      0.00%     75.05% # Class of executed instruction
system.switch_cpus1.op_class::SimdSha256Hash            0      0.00%     75.05% # Class of executed instruction
system.switch_cpus1.op_class::SimdSha256Hash2            0      0.00%     75.05% # Class of executed instruction
system.switch_cpus1.op_class::SimdShaSigma2            0      0.00%     75.05% # Class of executed instruction
system.switch_cpus1.op_class::SimdShaSigma3            0      0.00%     75.05% # Class of executed instruction
system.switch_cpus1.op_class::SimdPredAlu            0      0.00%     75.05% # Class of executed instruction
system.switch_cpus1.op_class::MemRead          283669     14.32%     89.37% # Class of executed instruction
system.switch_cpus1.op_class::MemWrite         207974     10.50%     99.87% # Class of executed instruction
system.switch_cpus1.op_class::FloatMemRead         1942      0.10%     99.97% # Class of executed instruction
system.switch_cpus1.op_class::FloatMemWrite          640      0.03%    100.00% # Class of executed instruction
system.switch_cpus1.op_class::IprAccess             0      0.00%    100.00% # Class of executed instruction
system.switch_cpus1.op_class::InstPrefetch            0      0.00%    100.00% # Class of executed instruction
system.switch_cpus1.op_class::total           1980643                       # Class of executed instruction
system.switch_cpus_10.branchPred.BTBCorrect            0                       # Number of correct BTB predictions (this stat may not work properly.
system.switch_cpus_10.branchPred.BTBHitPct     0.000000                       # BTB Hit Percentage
system.switch_cpus_10.branchPred.BTBHits            0                       # Number of BTB hits
system.switch_cpus_10.branchPred.BTBLookups       150493                       # Number of BTB lookups
system.switch_cpus_10.branchPred.RASInCorrect            4                       # Number of incorrect RAS predictions.
system.switch_cpus_10.branchPred.condIncorrect        16748                       # Number of conditional branches incorrect
system.switch_cpus_10.branchPred.condPredicted       140126                       # Number of conditional branches predicted
system.switch_cpus_10.branchPred.indirectHits        47213                       # Number of indirect target hits.
system.switch_cpus_10.branchPred.indirectLookups       150493                       # Number of indirect predictor lookups.
system.switch_cpus_10.branchPred.indirectMisses       103280                       # Number of indirect misses.
system.switch_cpus_10.branchPred.lookups       176780                       # Number of BP lookups
system.switch_cpus_10.branchPred.usedRAS        14786                       # Number of times the RAS was used to get a target.
system.switch_cpus_10.branchPredindirectMispredicted        15101                       # Number of mispredicted indirect branches.
system.switch_cpus_10.cc_regfile_reads         509250                       # number of cc regfile reads
system.switch_cpus_10.cc_regfile_writes        285254                       # number of cc regfile writes
system.switch_cpus_10.commit.amos                   0                       # Number of atomic instructions committed
system.switch_cpus_10.commit.branchMispredicts        16748                       # The number of times a branch was mispredicted
system.switch_cpus_10.commit.branches           98556                       # Number of branches committed
system.switch_cpus_10.commit.bw_lim_events        35881                       # number cycles where commit BW limit reached
system.switch_cpus_10.commit.commitNonSpecStalls          442                       # The number of times commit has been forced to stall to communicate backwards
system.switch_cpus_10.commit.commitSquashedInsts       361154                       # The number of squashed insts skipped by commit
system.switch_cpus_10.commit.committedInsts       404319                       # Number of instructions committed
system.switch_cpus_10.commit.committedOps       796360                       # Number of ops (including micro ops) committed
system.switch_cpus_10.commit.committed_per_cycle::samples       489173                       # Number of insts commited each cycle
system.switch_cpus_10.commit.committed_per_cycle::mean     1.627972                       # Number of insts commited each cycle
system.switch_cpus_10.commit.committed_per_cycle::stdev     2.440689                       # Number of insts commited each cycle
system.switch_cpus_10.commit.committed_per_cycle::underflows            0      0.00%      0.00% # Number of insts commited each cycle
system.switch_cpus_10.commit.committed_per_cycle::0       263903     53.95%     53.95% # Number of insts commited each cycle
system.switch_cpus_10.commit.committed_per_cycle::1        62279     12.73%     66.68% # Number of insts commited each cycle
system.switch_cpus_10.commit.committed_per_cycle::2        36338      7.43%     74.11% # Number of insts commited each cycle
system.switch_cpus_10.commit.committed_per_cycle::3        41780      8.54%     82.65% # Number of insts commited each cycle
system.switch_cpus_10.commit.committed_per_cycle::4        21874      4.47%     87.12% # Number of insts commited each cycle
system.switch_cpus_10.commit.committed_per_cycle::5         9798      2.00%     89.12% # Number of insts commited each cycle
system.switch_cpus_10.commit.committed_per_cycle::6         8709      1.78%     90.90% # Number of insts commited each cycle
system.switch_cpus_10.commit.committed_per_cycle::7         8611      1.76%     92.66% # Number of insts commited each cycle
system.switch_cpus_10.commit.committed_per_cycle::8        35881      7.34%    100.00% # Number of insts commited each cycle
system.switch_cpus_10.commit.committed_per_cycle::overflows            0      0.00%    100.00% # Number of insts commited each cycle
system.switch_cpus_10.commit.committed_per_cycle::min_value            0                       # Number of insts commited each cycle
system.switch_cpus_10.commit.committed_per_cycle::max_value            8                       # Number of insts commited each cycle
system.switch_cpus_10.commit.committed_per_cycle::total       489173                       # Number of insts commited each cycle
system.switch_cpus_10.commit.fp_insts           11353                       # Number of committed floating point instructions.
system.switch_cpus_10.commit.function_calls        10559                       # Number of function calls committed.
system.switch_cpus_10.commit.int_insts         788758                       # Number of committed integer instructions.
system.switch_cpus_10.commit.loads             104839                       # Number of loads committed
system.switch_cpus_10.commit.membars                0                       # Number of memory barriers committed
system.switch_cpus_10.commit.op_class_0::No_OpClass         4624      0.58%      0.58% # Class of committed instruction
system.switch_cpus_10.commit.op_class_0::IntAlu       613217     77.00%     77.58% # Class of committed instruction
system.switch_cpus_10.commit.op_class_0::IntMult          498      0.06%     77.65% # Class of committed instruction
system.switch_cpus_10.commit.op_class_0::IntDiv         3777      0.47%     78.12% # Class of committed instruction
system.switch_cpus_10.commit.op_class_0::FloatAdd          549      0.07%     78.19% # Class of committed instruction
system.switch_cpus_10.commit.op_class_0::FloatCmp            0      0.00%     78.19% # Class of committed instruction
system.switch_cpus_10.commit.op_class_0::FloatCvt           48      0.01%     78.19% # Class of committed instruction
system.switch_cpus_10.commit.op_class_0::FloatMult            0      0.00%     78.19% # Class of committed instruction
system.switch_cpus_10.commit.op_class_0::FloatMultAcc            0      0.00%     78.19% # Class of committed instruction
system.switch_cpus_10.commit.op_class_0::FloatDiv            0      0.00%     78.19% # Class of committed instruction
system.switch_cpus_10.commit.op_class_0::FloatMisc            0      0.00%     78.19% # Class of committed instruction
system.switch_cpus_10.commit.op_class_0::FloatSqrt            0      0.00%     78.19% # Class of committed instruction
system.switch_cpus_10.commit.op_class_0::SimdAdd           68      0.01%     78.20% # Class of committed instruction
system.switch_cpus_10.commit.op_class_0::SimdAddAcc            0      0.00%     78.20% # Class of committed instruction
system.switch_cpus_10.commit.op_class_0::SimdAlu          919      0.12%     78.32% # Class of committed instruction
system.switch_cpus_10.commit.op_class_0::SimdCmp            0      0.00%     78.32% # Class of committed instruction
system.switch_cpus_10.commit.op_class_0::SimdCvt          344      0.04%     78.36% # Class of committed instruction
system.switch_cpus_10.commit.op_class_0::SimdMisc         1062      0.13%     78.50% # Class of committed instruction
system.switch_cpus_10.commit.op_class_0::SimdMult            0      0.00%     78.50% # Class of committed instruction
system.switch_cpus_10.commit.op_class_0::SimdMultAcc            0      0.00%     78.50% # Class of committed instruction
system.switch_cpus_10.commit.op_class_0::SimdShift           24      0.00%     78.50% # Class of committed instruction
system.switch_cpus_10.commit.op_class_0::SimdShiftAcc            0      0.00%     78.50% # Class of committed instruction
system.switch_cpus_10.commit.op_class_0::SimdDiv            0      0.00%     78.50% # Class of committed instruction
system.switch_cpus_10.commit.op_class_0::SimdSqrt            0      0.00%     78.50% # Class of committed instruction
system.switch_cpus_10.commit.op_class_0::SimdFloatAdd          102      0.01%     78.51% # Class of committed instruction
system.switch_cpus_10.commit.op_class_0::SimdFloatAlu            0      0.00%     78.51% # Class of committed instruction
system.switch_cpus_10.commit.op_class_0::SimdFloatCmp            0      0.00%     78.51% # Class of committed instruction
system.switch_cpus_10.commit.op_class_0::SimdFloatCvt            0      0.00%     78.51% # Class of committed instruction
system.switch_cpus_10.commit.op_class_0::SimdFloatDiv            0      0.00%     78.51% # Class of committed instruction
system.switch_cpus_10.commit.op_class_0::SimdFloatMisc            0      0.00%     78.51% # Class of committed instruction
system.switch_cpus_10.commit.op_class_0::SimdFloatMult            0      0.00%     78.51% # Class of committed instruction
system.switch_cpus_10.commit.op_class_0::SimdFloatMultAcc            0      0.00%     78.51% # Class of committed instruction
system.switch_cpus_10.commit.op_class_0::SimdFloatSqrt            0      0.00%     78.51% # Class of committed instruction
system.switch_cpus_10.commit.op_class_0::SimdReduceAdd            0      0.00%     78.51% # Class of committed instruction
system.switch_cpus_10.commit.op_class_0::SimdReduceAlu            0      0.00%     78.51% # Class of committed instruction
system.switch_cpus_10.commit.op_class_0::SimdReduceCmp            0      0.00%     78.51% # Class of committed instruction
system.switch_cpus_10.commit.op_class_0::SimdFloatReduceAdd            0      0.00%     78.51% # Class of committed instruction
system.switch_cpus_10.commit.op_class_0::SimdFloatReduceCmp            0      0.00%     78.51% # Class of committed instruction
system.switch_cpus_10.commit.op_class_0::SimdAes            0      0.00%     78.51% # Class of committed instruction
system.switch_cpus_10.commit.op_class_0::SimdAesMix            0      0.00%     78.51% # Class of committed instruction
system.switch_cpus_10.commit.op_class_0::SimdSha1Hash            0      0.00%     78.51% # Class of committed instruction
system.switch_cpus_10.commit.op_class_0::SimdSha1Hash2            0      0.00%     78.51% # Class of committed instruction
system.switch_cpus_10.commit.op_class_0::SimdSha256Hash            0      0.00%     78.51% # Class of committed instruction
system.switch_cpus_10.commit.op_class_0::SimdSha256Hash2            0      0.00%     78.51% # Class of committed instruction
system.switch_cpus_10.commit.op_class_0::SimdShaSigma2            0      0.00%     78.51% # Class of committed instruction
system.switch_cpus_10.commit.op_class_0::SimdShaSigma3            0      0.00%     78.51% # Class of committed instruction
system.switch_cpus_10.commit.op_class_0::SimdPredAlu            0      0.00%     78.51% # Class of committed instruction
system.switch_cpus_10.commit.op_class_0::MemRead       102953     12.93%     91.44% # Class of committed instruction
system.switch_cpus_10.commit.op_class_0::MemWrite        60055      7.54%     98.98% # Class of committed instruction
system.switch_cpus_10.commit.op_class_0::FloatMemRead         1886      0.24%     99.22% # Class of committed instruction
system.switch_cpus_10.commit.op_class_0::FloatMemWrite         6234      0.78%    100.00% # Class of committed instruction
system.switch_cpus_10.commit.op_class_0::IprAccess            0      0.00%    100.00% # Class of committed instruction
system.switch_cpus_10.commit.op_class_0::InstPrefetch            0      0.00%    100.00% # Class of committed instruction
system.switch_cpus_10.commit.op_class_0::total       796360                       # Class of committed instruction
system.switch_cpus_10.commit.refs              171128                       # Number of memory references committed
system.switch_cpus_10.commit.swp_count              0                       # Number of s/w prefetches committed
system.switch_cpus_10.commit.vec_insts              0                       # Number of committed Vector instructions.
system.switch_cpus_10.committedInsts           404319                       # Number of Instructions Simulated
system.switch_cpus_10.committedOps             796360                       # Number of Ops (including micro ops) Simulated
system.switch_cpus_10.cpi                    1.439873                       # CPI: Cycles Per Instruction
system.switch_cpus_10.cpi_total              1.439873                       # CPI: Total CPI of All Threads
system.switch_cpus_10.decode.BlockedCycles        74353                       # Number of cycles decode is blocked
system.switch_cpus_10.decode.DecodedInsts      1339653                       # Number of instructions handled by decode
system.switch_cpus_10.decode.IdleCycles        251814                       # Number of cycles decode is idle
system.switch_cpus_10.decode.RunCycles         200752                       # Number of cycles decode is running
system.switch_cpus_10.decode.SquashCycles        16787                       # Number of cycles decode is squashing
system.switch_cpus_10.decode.UnblockCycles         1728                       # Number of cycles decode is unblocking
system.switch_cpus_10.dtb.rdAccesses           132224                       # TLB accesses on read requests
system.switch_cpus_10.dtb.rdMisses                299                       # TLB misses on read requests
system.switch_cpus_10.dtb.wrAccesses            80030                       # TLB accesses on write requests
system.switch_cpus_10.dtb.wrMisses                  6                       # TLB misses on write requests
system.switch_cpus_10.fetch.Branches           176780                       # Number of branches that fetch encountered
system.switch_cpus_10.fetch.CacheLines         102157                       # Number of cache lines fetched
system.switch_cpus_10.fetch.Cycles             253128                       # Number of cycles fetch has run and was not squashing or blocked
system.switch_cpus_10.fetch.IcacheSquashes         7565                       # Number of outstanding Icache misses that were squashed
system.switch_cpus_10.fetch.IcacheWaitRetryStallCycles          334                       # Number of stall cycles due to full MSHR
system.switch_cpus_10.fetch.Insts              703535                       # Number of instructions fetch has processed
system.switch_cpus_10.fetch.MiscStallCycles          278                       # Number of cycles fetch has spent waiting on interrupts, or bad addresses, or out of MSHRs
system.switch_cpus_10.fetch.PendingQuiesceStallCycles           32                       # Number of stall cycles due to pending quiesce instructions
system.switch_cpus_10.fetch.SquashCycles        33574                       # Number of cycles fetch has spent squashing
system.switch_cpus_10.fetch.branchRate       0.303658                       # Number of branch fetches per cycle
system.switch_cpus_10.fetch.icacheStallCycles       274877                       # Number of cycles fetch is stalled on an Icache miss
system.switch_cpus_10.fetch.predictedBranches        61999                       # Number of branches that fetch has predicted taken
system.switch_cpus_10.fetch.rate             1.208474                       # Number of inst fetches per cycle
system.switch_cpus_10.fetch.rateDist::samples       545436                       # Number of instructions fetched each cycle (Total)
system.switch_cpus_10.fetch.rateDist::mean     2.591925                       # Number of instructions fetched each cycle (Total)
system.switch_cpus_10.fetch.rateDist::stdev     3.483518                       # Number of instructions fetched each cycle (Total)
system.switch_cpus_10.fetch.rateDist::underflows            0      0.00%      0.00% # Number of instructions fetched each cycle (Total)
system.switch_cpus_10.fetch.rateDist::0        327016     59.95%     59.95% # Number of instructions fetched each cycle (Total)
system.switch_cpus_10.fetch.rateDist::1         10321      1.89%     61.85% # Number of instructions fetched each cycle (Total)
system.switch_cpus_10.fetch.rateDist::2         12858      2.36%     64.20% # Number of instructions fetched each cycle (Total)
system.switch_cpus_10.fetch.rateDist::3         12710      2.33%     66.53% # Number of instructions fetched each cycle (Total)
system.switch_cpus_10.fetch.rateDist::4         11616      2.13%     68.66% # Number of instructions fetched each cycle (Total)
system.switch_cpus_10.fetch.rateDist::5         10796      1.98%     70.64% # Number of instructions fetched each cycle (Total)
system.switch_cpus_10.fetch.rateDist::6         15536      2.85%     73.49% # Number of instructions fetched each cycle (Total)
system.switch_cpus_10.fetch.rateDist::7         10762      1.97%     75.47% # Number of instructions fetched each cycle (Total)
system.switch_cpus_10.fetch.rateDist::8        133821     24.53%    100.00% # Number of instructions fetched each cycle (Total)
system.switch_cpus_10.fetch.rateDist::overflows            0      0.00%    100.00% # Number of instructions fetched each cycle (Total)
system.switch_cpus_10.fetch.rateDist::min_value            0                       # Number of instructions fetched each cycle (Total)
system.switch_cpus_10.fetch.rateDist::max_value            8                       # Number of instructions fetched each cycle (Total)
system.switch_cpus_10.fetch.rateDist::total       545436                       # Number of instructions fetched each cycle (Total)
system.switch_cpus_10.fp_regfile_reads          12967                       # number of floating regfile reads
system.switch_cpus_10.fp_regfile_writes          6550                       # number of floating regfile writes
system.switch_cpus_10.idleCycles                36732                       # Total number of cycles that the CPU has spent unscheduled due to idling
system.switch_cpus_10.iew.branchMispredicts        21779                       # Number of branch mispredicts detected at execute
system.switch_cpus_10.iew.exec_branches        117031                       # Number of branches executed
system.switch_cpus_10.iew.exec_nop                  0                       # number of nop insts executed
system.switch_cpus_10.iew.exec_rate          1.744955                       # Inst execution rate
system.switch_cpus_10.iew.exec_refs            211870                       # number of memory reference insts executed
system.switch_cpus_10.iew.exec_stores           79945                       # Number of stores executed
system.switch_cpus_10.iew.exec_swp                  0                       # number of swp insts executed
system.switch_cpus_10.iew.iewBlockCycles        42144                       # Number of cycles IEW is blocking
system.switch_cpus_10.iew.iewDispLoadInsts       147559                       # Number of dispatched load instructions
system.switch_cpus_10.iew.iewDispNonSpecInsts          513                       # Number of dispatched non-speculative instructions
system.switch_cpus_10.iew.iewDispSquashedInsts         9458                       # Number of squashed instructions skipped by dispatch
system.switch_cpus_10.iew.iewDispStoreInsts        96220                       # Number of dispatched store instructions
system.switch_cpus_10.iew.iewDispatchedInsts      1157509                       # Number of instructions dispatched to IQ
system.switch_cpus_10.iew.iewExecLoadInsts       131925                       # Number of load instructions executed
system.switch_cpus_10.iew.iewExecSquashedInsts        37769                       # Number of squashed instructions skipped in execute
system.switch_cpus_10.iew.iewExecutedInsts      1015857                       # Number of executed instructions
system.switch_cpus_10.iew.iewIQFullEvents           46                       # Number of times the IQ has become full, causing a stall
system.switch_cpus_10.iew.iewIdleCycles             0                       # Number of cycles IEW is idle
system.switch_cpus_10.iew.iewLSQFullEvents         1642                       # Number of times the LSQ has become full, causing a stall
system.switch_cpus_10.iew.iewSquashCycles        16787                       # Number of cycles IEW is squashing
system.switch_cpus_10.iew.iewUnblockCycles         1705                       # Number of cycles IEW is unblocking
system.switch_cpus_10.iew.lsq.thread0.blockedLoads            0                       # Number of blocked loads due to partial load-store forwarding
system.switch_cpus_10.iew.lsq.thread0.cacheBlocked           25                       # Number of times an access to memory failed due to the cache being blocked
system.switch_cpus_10.iew.lsq.thread0.forwLoads        14363                       # Number of loads that had data forwarded from stores
system.switch_cpus_10.iew.lsq.thread0.ignoredResponses          175                       # Number of memory responses ignored because the instruction is squashed
system.switch_cpus_10.iew.lsq.thread0.invAddrLoads            0                       # Number of loads ignored due to an invalid address
system.switch_cpus_10.iew.lsq.thread0.invAddrSwpfs            0                       # Number of software prefetches ignored due to an invalid address
system.switch_cpus_10.iew.lsq.thread0.memOrderViolation           50                       # Number of memory ordering violations
system.switch_cpus_10.iew.lsq.thread0.rescheduledLoads            3                       # Number of loads that were rescheduled
system.switch_cpus_10.iew.lsq.thread0.squashedLoads        42720                       # Number of loads squashed
system.switch_cpus_10.iew.lsq.thread0.squashedStores        29931                       # Number of stores squashed
system.switch_cpus_10.iew.memOrderViolationEvents           50                       # Number of memory order violations
system.switch_cpus_10.iew.predictedNotTakenIncorrect        20622                       # Number of branches that were predicted not taken incorrectly
system.switch_cpus_10.iew.predictedTakenIncorrect         1157                       # Number of branches that were predicted taken incorrectly
system.switch_cpus_10.iew.wb_consumers        1071485                       # num instructions consuming a value
system.switch_cpus_10.iew.wb_count             999567                       # cumulative count of insts written-back
system.switch_cpus_10.iew.wb_fanout          0.644366                       # average fanout of values written-back
system.switch_cpus_10.iew.wb_producers         690428                       # num instructions producing a value
system.switch_cpus_10.iew.wb_rate            1.716973                       # insts written-back per cycle
system.switch_cpus_10.iew.wb_sent             1004040                       # cumulative count of insts sent to commit
system.switch_cpus_10.int_regfile_reads       1460238                       # number of integer regfile reads
system.switch_cpus_10.int_regfile_writes       802441                       # number of integer regfile writes
system.switch_cpus_10.ipc                    0.694506                       # IPC: Instructions Per Cycle
system.switch_cpus_10.ipc_total              0.694506                       # IPC: Total IPC of All Threads
system.switch_cpus_10.iq.FU_type_0::No_OpClass        11017      1.05%      1.05% # Type of FU issued
system.switch_cpus_10.iq.FU_type_0::IntAlu       811374     77.01%     78.05% # Type of FU issued
system.switch_cpus_10.iq.FU_type_0::IntMult          536      0.05%     78.10% # Type of FU issued
system.switch_cpus_10.iq.FU_type_0::IntDiv         4359      0.41%     78.52% # Type of FU issued
system.switch_cpus_10.iq.FU_type_0::FloatAdd         1739      0.17%     78.68% # Type of FU issued
system.switch_cpus_10.iq.FU_type_0::FloatCmp            0      0.00%     78.68% # Type of FU issued
system.switch_cpus_10.iq.FU_type_0::FloatCvt          196      0.02%     78.70% # Type of FU issued
system.switch_cpus_10.iq.FU_type_0::FloatMult            0      0.00%     78.70% # Type of FU issued
system.switch_cpus_10.iq.FU_type_0::FloatMultAcc            0      0.00%     78.70% # Type of FU issued
system.switch_cpus_10.iq.FU_type_0::FloatDiv            0      0.00%     78.70% # Type of FU issued
system.switch_cpus_10.iq.FU_type_0::FloatMisc            0      0.00%     78.70% # Type of FU issued
system.switch_cpus_10.iq.FU_type_0::FloatSqrt            0      0.00%     78.70% # Type of FU issued
system.switch_cpus_10.iq.FU_type_0::SimdAdd           87      0.01%     78.71% # Type of FU issued
system.switch_cpus_10.iq.FU_type_0::SimdAddAcc            0      0.00%     78.71% # Type of FU issued
system.switch_cpus_10.iq.FU_type_0::SimdAlu         1082      0.10%     78.81% # Type of FU issued
system.switch_cpus_10.iq.FU_type_0::SimdCmp            0      0.00%     78.81% # Type of FU issued
system.switch_cpus_10.iq.FU_type_0::SimdCvt          416      0.04%     78.85% # Type of FU issued
system.switch_cpus_10.iq.FU_type_0::SimdMisc         1086      0.10%     78.96% # Type of FU issued
system.switch_cpus_10.iq.FU_type_0::SimdMult            0      0.00%     78.96% # Type of FU issued
system.switch_cpus_10.iq.FU_type_0::SimdMultAcc            0      0.00%     78.96% # Type of FU issued
system.switch_cpus_10.iq.FU_type_0::SimdShift           70      0.01%     78.96% # Type of FU issued
system.switch_cpus_10.iq.FU_type_0::SimdShiftAcc            0      0.00%     78.96% # Type of FU issued
system.switch_cpus_10.iq.FU_type_0::SimdDiv            0      0.00%     78.96% # Type of FU issued
system.switch_cpus_10.iq.FU_type_0::SimdSqrt            0      0.00%     78.96% # Type of FU issued
system.switch_cpus_10.iq.FU_type_0::SimdFloatAdd          102      0.01%     78.97% # Type of FU issued
system.switch_cpus_10.iq.FU_type_0::SimdFloatAlu            0      0.00%     78.97% # Type of FU issued
system.switch_cpus_10.iq.FU_type_0::SimdFloatCmp            0      0.00%     78.97% # Type of FU issued
system.switch_cpus_10.iq.FU_type_0::SimdFloatCvt            0      0.00%     78.97% # Type of FU issued
system.switch_cpus_10.iq.FU_type_0::SimdFloatDiv            0      0.00%     78.97% # Type of FU issued
system.switch_cpus_10.iq.FU_type_0::SimdFloatMisc            0      0.00%     78.97% # Type of FU issued
system.switch_cpus_10.iq.FU_type_0::SimdFloatMult            0      0.00%     78.97% # Type of FU issued
system.switch_cpus_10.iq.FU_type_0::SimdFloatMultAcc            0      0.00%     78.97% # Type of FU issued
system.switch_cpus_10.iq.FU_type_0::SimdFloatSqrt            0      0.00%     78.97% # Type of FU issued
system.switch_cpus_10.iq.FU_type_0::SimdReduceAdd            0      0.00%     78.97% # Type of FU issued
system.switch_cpus_10.iq.FU_type_0::SimdReduceAlu            0      0.00%     78.97% # Type of FU issued
system.switch_cpus_10.iq.FU_type_0::SimdReduceCmp            0      0.00%     78.97% # Type of FU issued
system.switch_cpus_10.iq.FU_type_0::SimdFloatReduceAdd            0      0.00%     78.97% # Type of FU issued
system.switch_cpus_10.iq.FU_type_0::SimdFloatReduceCmp            0      0.00%     78.97% # Type of FU issued
system.switch_cpus_10.iq.FU_type_0::SimdAes            0      0.00%     78.97% # Type of FU issued
system.switch_cpus_10.iq.FU_type_0::SimdAesMix            0      0.00%     78.97% # Type of FU issued
system.switch_cpus_10.iq.FU_type_0::SimdSha1Hash            0      0.00%     78.97% # Type of FU issued
system.switch_cpus_10.iq.FU_type_0::SimdSha1Hash2            0      0.00%     78.97% # Type of FU issued
system.switch_cpus_10.iq.FU_type_0::SimdSha256Hash            0      0.00%     78.97% # Type of FU issued
system.switch_cpus_10.iq.FU_type_0::SimdSha256Hash2            0      0.00%     78.97% # Type of FU issued
system.switch_cpus_10.iq.FU_type_0::SimdShaSigma2            0      0.00%     78.97% # Type of FU issued
system.switch_cpus_10.iq.FU_type_0::SimdShaSigma3            0      0.00%     78.97% # Type of FU issued
system.switch_cpus_10.iq.FU_type_0::SimdPredAlu            0      0.00%     78.97% # Type of FU issued
system.switch_cpus_10.iq.FU_type_0::MemRead       133620     12.68%     91.65% # Type of FU issued
system.switch_cpus_10.iq.FU_type_0::MemWrite        77066      7.31%     98.97% # Type of FU issued
system.switch_cpus_10.iq.FU_type_0::FloatMemRead         4046      0.38%     99.35% # Type of FU issued
system.switch_cpus_10.iq.FU_type_0::FloatMemWrite         6830      0.65%    100.00% # Type of FU issued
system.switch_cpus_10.iq.FU_type_0::IprAccess            0      0.00%    100.00% # Type of FU issued
system.switch_cpus_10.iq.FU_type_0::InstPrefetch            0      0.00%    100.00% # Type of FU issued
system.switch_cpus_10.iq.FU_type_0::total      1053626                       # Type of FU issued
system.switch_cpus_10.iq.fp_alu_accesses        16979                       # Number of floating point alu accesses
system.switch_cpus_10.iq.fp_inst_queue_reads        32802                       # Number of floating instruction queue reads
system.switch_cpus_10.iq.fp_inst_queue_wakeup_accesses        13360                       # Number of floating instruction queue wakeup accesses
system.switch_cpus_10.iq.fp_inst_queue_writes        24393                       # Number of floating instruction queue writes
system.switch_cpus_10.iq.fu_busy_cnt            15870                       # FU busy when requested
system.switch_cpus_10.iq.fu_busy_rate        0.015062                       # FU busy rate (busy events/executed inst)
system.switch_cpus_10.iq.fu_full::No_OpClass            0      0.00%      0.00% # attempts to use FU when none available
system.switch_cpus_10.iq.fu_full::IntAlu        13594     85.66%     85.66% # attempts to use FU when none available
system.switch_cpus_10.iq.fu_full::IntMult            0      0.00%     85.66% # attempts to use FU when none available
system.switch_cpus_10.iq.fu_full::IntDiv            0      0.00%     85.66% # attempts to use FU when none available
system.switch_cpus_10.iq.fu_full::FloatAdd            0      0.00%     85.66% # attempts to use FU when none available
system.switch_cpus_10.iq.fu_full::FloatCmp            0      0.00%     85.66% # attempts to use FU when none available
system.switch_cpus_10.iq.fu_full::FloatCvt            0      0.00%     85.66% # attempts to use FU when none available
system.switch_cpus_10.iq.fu_full::FloatMult            0      0.00%     85.66% # attempts to use FU when none available
system.switch_cpus_10.iq.fu_full::FloatMultAcc            0      0.00%     85.66% # attempts to use FU when none available
system.switch_cpus_10.iq.fu_full::FloatDiv            0      0.00%     85.66% # attempts to use FU when none available
system.switch_cpus_10.iq.fu_full::FloatMisc            0      0.00%     85.66% # attempts to use FU when none available
system.switch_cpus_10.iq.fu_full::FloatSqrt            0      0.00%     85.66% # attempts to use FU when none available
system.switch_cpus_10.iq.fu_full::SimdAdd            0      0.00%     85.66% # attempts to use FU when none available
system.switch_cpus_10.iq.fu_full::SimdAddAcc            0      0.00%     85.66% # attempts to use FU when none available
system.switch_cpus_10.iq.fu_full::SimdAlu          105      0.66%     86.32% # attempts to use FU when none available
system.switch_cpus_10.iq.fu_full::SimdCmp            0      0.00%     86.32% # attempts to use FU when none available
system.switch_cpus_10.iq.fu_full::SimdCvt            2      0.01%     86.33% # attempts to use FU when none available
system.switch_cpus_10.iq.fu_full::SimdMisc            0      0.00%     86.33% # attempts to use FU when none available
system.switch_cpus_10.iq.fu_full::SimdMult            0      0.00%     86.33% # attempts to use FU when none available
system.switch_cpus_10.iq.fu_full::SimdMultAcc            0      0.00%     86.33% # attempts to use FU when none available
system.switch_cpus_10.iq.fu_full::SimdShift            2      0.01%     86.35% # attempts to use FU when none available
system.switch_cpus_10.iq.fu_full::SimdShiftAcc            0      0.00%     86.35% # attempts to use FU when none available
system.switch_cpus_10.iq.fu_full::SimdDiv            0      0.00%     86.35% # attempts to use FU when none available
system.switch_cpus_10.iq.fu_full::SimdSqrt            0      0.00%     86.35% # attempts to use FU when none available
system.switch_cpus_10.iq.fu_full::SimdFloatAdd            0      0.00%     86.35% # attempts to use FU when none available
system.switch_cpus_10.iq.fu_full::SimdFloatAlu            0      0.00%     86.35% # attempts to use FU when none available
system.switch_cpus_10.iq.fu_full::SimdFloatCmp            0      0.00%     86.35% # attempts to use FU when none available
system.switch_cpus_10.iq.fu_full::SimdFloatCvt            0      0.00%     86.35% # attempts to use FU when none available
system.switch_cpus_10.iq.fu_full::SimdFloatDiv            0      0.00%     86.35% # attempts to use FU when none available
[...]
system.cpu1.l2cache.ReadSharedReq_avg_mshr_miss_latency::.switch_cpus1.data 69598.622705                       # average ReadSharedReq mshr miss latency
system.cpu1.l2cache.ReadSharedReq_avg_mshr_miss_latency::.switch_cpus_11.data 69577.044971                       # average ReadSharedReq mshr miss latency
system.cpu1.l2cache.ReadSharedReq_avg_mshr_miss_latency::total 69577.905523                       # average ReadSharedReq mshr miss latency
system.cpu1.l2cache.tags.pwrStateResidencyTicks::UNDEFINED 1318913689188                       # Cumulative time (in ticks) in various power states
system.cpu1.l2cache.tags.tagsinuse          71.848361                       # Cycle average of tags in use
system.cpu1.l2cache.tags.total_refs            113125                       # Total number of references to valid blocks.
system.cpu1.l2cache.tags.sampled_refs           30350                       # Sample count of references to valid blocks.
system.cpu1.l2cache.tags.avg_refs            3.727348                       # Average number of references to valid blocks.
system.cpu1.l2cache.tags.warmup_cycle    1293351708033                       # Cycle when the warmup percentage was hit.
system.cpu1.l2cache.tags.occ_blocks::.cpu1.inst     0.003561                       # Average occupied blocks per requestor
system.cpu1.l2cache.tags.occ_blocks::.cpu1.data     0.019381                       # Average occupied blocks per requestor
system.cpu1.l2cache.tags.occ_blocks::.switch_cpus1.inst     0.666346                       # Average occupied blocks per requestor
system.cpu1.l2cache.tags.occ_blocks::.switch_cpus1.data    10.523607                       # Average occupied blocks per requestor
system.cpu1.l2cache.tags.occ_blocks::.switch_cpus_11.inst     0.175074                       # Average occupied blocks per requestor
system.cpu1.l2cache.tags.occ_blocks::.switch_cpus_11.data    60.460392                       # Average occupied blocks per requestor
system.cpu1.l2cache.tags.occ_percent::.cpu1.inst     0.000001                       # Average percentage of cache occupancy
system.cpu1.l2cache.tags.occ_percent::.cpu1.data     0.000005                       # Average percentage of cache occupancy
system.cpu1.l2cache.tags.occ_percent::.switch_cpus1.inst     0.000163                       # Average percentage of cache occupancy
system.cpu1.l2cache.tags.occ_percent::.switch_cpus1.data     0.002569                       # Average percentage of cache occupancy
system.cpu1.l2cache.tags.occ_percent::.switch_cpus_11.inst     0.000043                       # Average percentage of cache occupancy
system.cpu1.l2cache.tags.occ_percent::.switch_cpus_11.data     0.014761                       # Average percentage of cache occupancy
system.cpu1.l2cache.tags.occ_percent::total     0.017541                       # Average percentage of cache occupancy
system.cpu1.l2cache.tags.occ_task_id_blocks::1024         4096                       # Occupied blocks per task id
system.cpu1.l2cache.tags.age_task_id_blocks_1024::0            8                       # Occupied blocks per task id
system.cpu1.l2cache.tags.age_task_id_blocks_1024::1           80                       # Occupied blocks per task id
system.cpu1.l2cache.tags.age_task_id_blocks_1024::2         1130                       # Occupied blocks per task id
system.cpu1.l2cache.tags.age_task_id_blocks_1024::3         2369                       # Occupied blocks per task id
system.cpu1.l2cache.tags.age_task_id_blocks_1024::4          509                       # Occupied blocks per task id
system.cpu1.l2cache.tags.occ_task_id_percent::1024            1                       # Percentage of cache occupancy per task id
system.cpu1.l2cache.tags.tag_accesses         1840398                       # Number of tag accesses
system.cpu1.l2cache.tags.data_accesses        1840398                       # Number of data accesses
system.cpu1.toL2Bus.pwrStateResidencyTicks::UNDEFINED 1318913689188                       # Cumulative time (in ticks) in various power states
system.cpu1.toL2Bus.trans_dist::ReadResp        56836                       # Transaction distribution
system.cpu1.toL2Bus.trans_dist::WritebackDirty          185                       # Transaction distribution
system.cpu1.toL2Bus.trans_dist::CleanEvict        82495                       # Transaction distribution
system.cpu1.toL2Bus.trans_dist::ReadExReq          148                       # Transaction distribution
system.cpu1.toL2Bus.trans_dist::ReadExResp          148                       # Transaction distribution
system.cpu1.toL2Bus.trans_dist::ReadCleanReq          286                       # Transaction distribution
system.cpu1.toL2Bus.trans_dist::ReadSharedReq        56550                       # Transaction distribution
system.cpu1.toL2Bus.pkt_count_system.cpu1.icache.mem_side::system.cpu1.l2cache.cpu_side          572                       # Packet count per connected master and slave (bytes)
system.cpu1.toL2Bus.pkt_count_system.cpu1.dcache.mem_side::system.cpu1.l2cache.cpu_side       169582                       # Packet count per connected master and slave (bytes)
system.cpu1.toL2Bus.pkt_count::total           170154                       # Packet count per connected master and slave (bytes)
system.cpu1.toL2Bus.pkt_size_system.cpu1.icache.mem_side::system.cpu1.l2cache.cpu_side        18304                       # Cumulative packet size per connected master and slave (bytes)
system.cpu1.toL2Bus.pkt_size_system.cpu1.dcache.mem_side::system.cpu1.l2cache.cpu_side      3640000                       # Cumulative packet size per connected master and slave (bytes)
system.cpu1.toL2Bus.pkt_size::total           3658304                       # Cumulative packet size per connected master and slave (bytes)
system.cpu1.toL2Bus.snoops                      26494                       # Total snoops (count)
system.cpu1.toL2Bus.snoopTraffic                  512                       # Total snoop traffic (bytes)
system.cpu1.toL2Bus.snoop_fanout::samples        83478                       # Request fanout histogram
system.cpu1.toL2Bus.snoop_fanout::mean       0.006517                       # Request fanout histogram
system.cpu1.toL2Bus.snoop_fanout::stdev      0.080463                       # Request fanout histogram
system.cpu1.toL2Bus.snoop_fanout::underflows            0      0.00%      0.00% # Request fanout histogram
system.cpu1.toL2Bus.snoop_fanout::0             82934     99.35%     99.35% # Request fanout histogram
system.cpu1.toL2Bus.snoop_fanout::1               544      0.65%    100.00% # Request fanout histogram
system.cpu1.toL2Bus.snoop_fanout::2                 0      0.00%    100.00% # Request fanout histogram
system.cpu1.toL2Bus.snoop_fanout::3                 0      0.00%    100.00% # Request fanout histogram
system.cpu1.toL2Bus.snoop_fanout::4                 0      0.00%    100.00% # Request fanout histogram
system.cpu1.toL2Bus.snoop_fanout::overflows            0      0.00%    100.00% # Request fanout histogram
system.cpu1.toL2Bus.snoop_fanout::min_value            0                       # Request fanout histogram
system.cpu1.toL2Bus.snoop_fanout::max_value            1                       # Request fanout histogram
system.cpu1.toL2Bus.snoop_fanout::total         83478                       # Request fanout histogram
system.cpu1.toL2Bus.reqLayer0.occupancy      47338674                       # Layer occupancy (ticks)
system.cpu1.toL2Bus.reqLayer0.utilization          0.2                       # Layer utilization (%)
system.cpu1.toL2Bus.respLayer1.occupancy     70927947                       # Layer occupancy (ticks)
system.cpu1.toL2Bus.respLayer1.utilization          0.3                       # Layer utilization (%)
system.cpu1.toL2Bus.respLayer0.occupancy       356535                       # Layer occupancy (ticks)
system.cpu1.toL2Bus.respLayer0.utilization          0.0                       # Layer utilization (%)
system.switch_cpus_10.numPwrStateTransitions            1                       # Number of power state transitions
system.switch_cpus_10.pwrStateClkGateDist::samples            1                       # Distribution of time spent in the clock gated state
system.switch_cpus_10.pwrStateClkGateDist::mean  23048169630                       # Distribution of time spent in the clock gated state
system.switch_cpus_10.pwrStateClkGateDist::1000-5e+10            1    100.00%    100.00% # Distribution of time spent in the clock gated state
system.switch_cpus_10.pwrStateClkGateDist::min_value  23048169630                       # Distribution of time spent in the clock gated state
system.switch_cpus_10.pwrStateClkGateDist::max_value  23048169630                       # Distribution of time spent in the clock gated state
system.switch_cpus_10.pwrStateClkGateDist::total            1                       # Distribution of time spent in the clock gated state
system.switch_cpus_10.pwrStateResidencyTicks::CLK_GATED  23048169630                       # Cumulative time (in ticks) in various power states
system.switch_cpus_10.pwrStateResidencyTicks::OFF   2513811942                       # Cumulative time (in ticks) in various power states
system.switch_cpus_10.dtb.walker.pwrStateResidencyTicks::UNDEFINED 1318913689188                       # Cumulative time (in ticks) in various power states
system.switch_cpus_10.itb.walker.pwrStateResidencyTicks::UNDEFINED 1318913689188                       # Cumulative time (in ticks) in various power states
system.switch_cpus_11.pwrStateResidencyTicks::OFF  25561981572                       # Cumulative time (in ticks) in various power states
system.switch_cpus_11.dtb.walker.pwrStateResidencyTicks::UNDEFINED 1318913689188                       # Cumulative time (in ticks) in various power states
system.switch_cpus_11.itb.walker.pwrStateResidencyTicks::UNDEFINED 1318913689188                       # Cumulative time (in ticks) in various power states
system.cpu_voltage_domain.voltage                   1                       # Voltage in Volts
system.switch_cpus1.numPwrStateTransitions            1                       # Number of power state transitions
system.switch_cpus1.pwrStateResidencyTicks::UNDEFINED 1293351707616                       # Cumulative time (in ticks) in various power states
system.switch_cpus1.pwrStateResidencyTicks::OFF  25561981572                       # Cumulative time (in ticks) in various power states
system.switch_cpus1.dtb.walker.pwrStateResidencyTicks::UNDEFINED 1318913689188                       # Cumulative time (in ticks) in various power states
system.switch_cpus1.itb.walker.pwrStateResidencyTicks::UNDEFINED 1318913689188                       # Cumulative time (in ticks) in various power states
system.mem_ctrls.pwrStateResidencyTicks::UNDEFINED 1318913689188                       # Cumulative time (in ticks) in various power states
system.mem_ctrls.bytes_read::.cpu0.inst            64                       # Number of bytes read from this memory
system.mem_ctrls.bytes_read::.cpu1.inst            64                       # Number of bytes read from this memory
system.mem_ctrls.bytes_read::.cpu1.data            64                       # Number of bytes read from this memory
system.mem_ctrls.bytes_read::.switch_cpus0.inst        20544                       # Number of bytes read from this memory
system.mem_ctrls.bytes_read::.switch_cpus0.data        12736                       # Number of bytes read from this memory
system.mem_ctrls.bytes_read::.switch_cpus1.inst        12672                       # Number of bytes read from this memory
system.mem_ctrls.bytes_read::.switch_cpus1.data        78016                       # Number of bytes read from this memory
system.mem_ctrls.bytes_read::.switch_cpus_10.inst        37504                       # Number of bytes read from this memory
system.mem_ctrls.bytes_read::.switch_cpus_10.data        27008                       # Number of bytes read from this memory
system.mem_ctrls.bytes_read::.switch_cpus_11.inst         5568                       # Number of bytes read from this memory
system.mem_ctrls.bytes_read::.switch_cpus_11.data      1844800                       # Number of bytes read from this memory
system.mem_ctrls.bytes_read::total            2039040                       # Number of bytes read from this memory
system.mem_ctrls.bytes_inst_read::.cpu0.inst           64                       # Number of instructions bytes read from this memory
system.mem_ctrls.bytes_inst_read::.cpu1.inst           64                       # Number of instructions bytes read from this memory
system.mem_ctrls.bytes_inst_read::.switch_cpus0.inst        20544                       # Number of instructions bytes read from this memory
system.mem_ctrls.bytes_inst_read::.switch_cpus1.inst        12672                       # Number of instructions bytes read from this memory
system.mem_ctrls.bytes_inst_read::.switch_cpus_10.inst        37504                       # Number of instructions bytes read from this memory
system.mem_ctrls.bytes_inst_read::.switch_cpus_11.inst         5568                       # Number of instructions bytes read from this memory
system.mem_ctrls.bytes_inst_read::total         76416                       # Number of instructions bytes read from this memory
system.mem_ctrls.bytes_written::.switch_cpus1.data          128                       # Number of bytes written to this memory
system.mem_ctrls.bytes_written::total             128                       # Number of bytes written to this memory
system.mem_ctrls.num_reads::.cpu0.inst              1                       # Number of read requests responded to by this memory
system.mem_ctrls.num_reads::.cpu1.inst              1                       # Number of read requests responded to by this memory
system.mem_ctrls.num_reads::.cpu1.data              1                       # Number of read requests responded to by this memory
system.mem_ctrls.num_reads::.switch_cpus0.inst          321                       # Number of read requests responded to by this memory
system.mem_ctrls.num_reads::.switch_cpus0.data          199                       # Number of read requests responded to by this memory
system.mem_ctrls.num_reads::.switch_cpus1.inst          198                       # Number of read requests responded to by this memory
system.mem_ctrls.num_reads::.switch_cpus1.data         1219                       # Number of read requests responded to by this memory
system.mem_ctrls.num_reads::.switch_cpus_10.inst          586                       # Number of read requests responded to by this memory
system.mem_ctrls.num_reads::.switch_cpus_10.data          422                       # Number of read requests responded to by this memory
system.mem_ctrls.num_reads::.switch_cpus_11.inst           87                       # Number of read requests responded to by this memory
system.mem_ctrls.num_reads::.switch_cpus_11.data        28825                       # Number of read requests responded to by this memory
system.mem_ctrls.num_reads::total               31860                       # Number of read requests responded to by this memory
system.mem_ctrls.num_writes::.switch_cpus1.data            2                       # Number of write requests responded to by this memory
system.mem_ctrls.num_writes::total                  2                       # Number of write requests responded to by this memory
system.mem_ctrls.bw_read::.cpu0.inst             2504                       # Total read bandwidth from this memory (bytes/s)
system.mem_ctrls.bw_read::.cpu1.inst             2504                       # Total read bandwidth from this memory (bytes/s)
system.mem_ctrls.bw_read::.cpu1.data             2504                       # Total read bandwidth from this memory (bytes/s)
system.mem_ctrls.bw_read::.switch_cpus0.inst       803694                       # Total read bandwidth from this memory (bytes/s)
system.mem_ctrls.bw_read::.switch_cpus0.data       498240                       # Total read bandwidth from this memory (bytes/s)
system.mem_ctrls.bw_read::.switch_cpus1.inst       495736                       # Total read bandwidth from this memory (bytes/s)
system.mem_ctrls.bw_read::.switch_cpus1.data      3052033                       # Total read bandwidth from this memory (bytes/s)
system.mem_ctrls.bw_read::.switch_cpus_10.inst      1467179                       # Total read bandwidth from this memory (bytes/s)
system.mem_ctrls.bw_read::.switch_cpus_10.data      1056569                       # Total read bandwidth from this memory (bytes/s)
system.mem_ctrls.bw_read::.switch_cpus_11.inst       217823                       # Total read bandwidth from this memory (bytes/s)
system.mem_ctrls.bw_read::.switch_cpus_11.data     72169679                       # Total read bandwidth from this memory (bytes/s)
system.mem_ctrls.bw_read::total              79768464                       # Total read bandwidth from this memory (bytes/s)
system.mem_ctrls.bw_inst_read::.cpu0.inst         2504                       # Instruction read bandwidth from this memory (bytes/s)
system.mem_ctrls.bw_inst_read::.cpu1.inst         2504                       # Instruction read bandwidth from this memory (bytes/s)
system.mem_ctrls.bw_inst_read::.switch_cpus0.inst       803694                       # Instruction read bandwidth from this memory (bytes/s)
system.mem_ctrls.bw_inst_read::.switch_cpus1.inst       495736                       # Instruction read bandwidth from this memory (bytes/s)
system.mem_ctrls.bw_inst_read::.switch_cpus_10.inst      1467179                       # Instruction read bandwidth from this memory (bytes/s)
system.mem_ctrls.bw_inst_read::.switch_cpus_11.inst       217823                       # Instruction read bandwidth from this memory (bytes/s)
system.mem_ctrls.bw_inst_read::total          2989440                       # Instruction read bandwidth from this memory (bytes/s)
system.mem_ctrls.bw_write::.switch_cpus1.data         5007                       # Write bandwidth from this memory (bytes/s)
system.mem_ctrls.bw_write::total                 5007                       # Write bandwidth from this memory (bytes/s)
system.mem_ctrls.bw_total::.cpu0.inst            2504                       # Total bandwidth to/from this memory (bytes/s)
system.mem_ctrls.bw_total::.cpu1.inst            2504                       # Total bandwidth to/from this memory (bytes/s)
system.mem_ctrls.bw_total::.cpu1.data            2504                       # Total bandwidth to/from this memory (bytes/s)
system.mem_ctrls.bw_total::.switch_cpus0.inst       803694                       # Total bandwidth to/from this memory (bytes/s)
system.mem_ctrls.bw_total::.switch_cpus0.data       498240                       # Total bandwidth to/from this memory (bytes/s)
system.mem_ctrls.bw_total::.switch_cpus1.inst       495736                       # Total bandwidth to/from this memory (bytes/s)
system.mem_ctrls.bw_total::.switch_cpus1.data      3057040                       # Total bandwidth to/from this memory (bytes/s)
system.mem_ctrls.bw_total::.switch_cpus_10.inst      1467179                       # Total bandwidth to/from this memory (bytes/s)
system.mem_ctrls.bw_total::.switch_cpus_10.data      1056569                       # Total bandwidth to/from this memory (bytes/s)
system.mem_ctrls.bw_total::.switch_cpus_11.inst       217823                       # Total bandwidth to/from this memory (bytes/s)
system.mem_ctrls.bw_total::.switch_cpus_11.data     72169679                       # Total bandwidth to/from this memory (bytes/s)
system.mem_ctrls.bw_total::total             79773471                       # Total bandwidth to/from this memory (bytes/s)
system.cpu_clk_domain.clock                       417                       # Clock period in ticks

---------- End Simulation Statistics   ----------
