
---------- Begin Simulation Statistics ----------
final_tick                               1312684813404                       # Number of ticks from beginning of simulation (restored from checkpoints and never reset)
host_inst_rate                                 156430                       # Simulator instruction rate (inst/s)
host_mem_usage                                4535780                       # Number of bytes of host memory used
host_op_rate                                   295887                       # Simulator op (including micro ops) rate (op/s)
host_seconds                                   541.14                       # Real time elapsed on the host
host_tick_rate                               35726649                       # Simulator tick rate (ticks/s)
sim_freq                                 1000000000000                       # Frequency of simulated ticks
sim_insts                                    84650589                       # Number of instructions simulated
sim_ops                                     160116372                       # Number of ops (including micro ops) simulated
sim_seconds                                  0.019333                       # Number of seconds simulated
sim_ticks                                 19333105788                       # Number of ticks simulated
system.cpu0.committedInsts                          2                       # Number of instructions committed
system.cpu0.committedOps                            3                       # Number of ops (including micro ops) committed
system.cpu0.dcache.prefetcher.num_hwpf_issued        12964                       # number of hwpf issued
system.cpu0.dcache.prefetcher.pfBufferHit        12391                       # number of redundant prefetches already in prefetch queue
system.cpu0.dcache.prefetcher.pfIdentified        28762                       # number of prefetch candidates identified
system.cpu0.dcache.prefetcher.pfInCache             0                       # number of redundant prefetches already in cache/mshr dropped
system.cpu0.dcache.prefetcher.pfRemovedFull            0                       # number of prefetches dropped due to prefetch queue size
system.cpu0.dcache.prefetcher.pfSpanPage         2662                       # number of prefetches that crossed the page
system.cpu0.dtb.rdAccesses                          1                       # TLB accesses on read requests
system.cpu0.dtb.rdMisses                            0                       # TLB misses on read requests
system.cpu0.dtb.wrAccesses                          0                       # TLB accesses on write requests
system.cpu0.dtb.wrMisses                            0                       # TLB misses on write requests
system.cpu0.idle_fraction                           0                       # Percentage of idle cycles
system.cpu0.itb.rdAccesses                          0                       # TLB accesses on read requests
system.cpu0.itb.rdMisses                            0                       # TLB misses on read requests
system.cpu0.itb.wrAccesses                          3                       # TLB accesses on write requests
system.cpu0.itb.wrMisses                            0                       # TLB misses on write requests
system.cpu0.not_idle_fraction                       1                       # Percentage of non-idle cycles
system.cpu0.numCycles                               4                       # number of cpu cycles simulated
system.cpu0.numWorkItemsCompleted                   0                       # number of work items this cpu completed
system.cpu0.numWorkItemsStarted                     0                       # number of work items this cpu started
system.cpu0.num_busy_cycles                         4                       # Number of busy cycles
system.cpu0.num_cc_register_reads                   1                       # number of times the CC registers were read
system.cpu0.num_cc_register_writes                  2                       # number of times the CC registers were written
system.cpu0.num_conditional_control_insts            0                       # number of instructions that are conditional controls
system.cpu0.num_fp_alu_accesses                     0                       # Number of float alu accesses
system.cpu0.num_fp_insts                            0                       # number of float instructions
system.cpu0.num_fp_register_reads                   0                       # number of times the floating registers were read
system.cpu0.num_fp_register_writes                  0                       # number of times the floating registers were written
system.cpu0.num_func_calls                          0                       # number of times a function call or return occured
system.cpu0.num_idle_cycles                         0                       # Number of idle cycles
system.cpu0.num_int_alu_accesses                    3                       # Number of integer alu accesses
system.cpu0.num_int_insts                           3                       # number of integer instructions
system.cpu0.num_int_register_reads                  8                       # number of times the integer registers were read
system.cpu0.num_int_register_writes                 3                       # number of times the integer registers were written
system.cpu0.num_load_insts                          1                       # Number of load instructions
system.cpu0.num_mem_refs                            1                       # number of memory refs
system.cpu0.num_store_insts                         0                       # Number of store instructions
system.cpu0.num_vec_alu_accesses                    0                       # Number of vector alu accesses
system.cpu0.num_vec_insts                           0                       # number of vector instructions
system.cpu0.num_vec_register_reads                  0                       # number of times the vector registers were read
system.cpu0.num_vec_register_writes                 0                       # number of times the vector registers were written
system.cpu0.op_class::No_OpClass                    0      0.00%      0.00% # Class of executed instruction
system.cpu0.op_class::IntAlu                        2     66.67%     66.67% # Class of executed instruction
system.cpu0.op_class::IntMult                       0      0.00%     66.67% # Class of executed instruction
system.cpu0.op_class::IntDiv                        0      0.00%     66.67% # Class of executed instruction
system.cpu0.op_class::FloatAdd                      0      0.00%     66.67% # Class of executed instruction
system.cpu0.op_class::FloatCmp                      0      0.00%     66.67% # Class of executed instruction
system.cpu0.op_class::FloatCvt                      0      0.00%     66.67% # Class of executed instruction
system.cpu0.op_class::FloatMult                     0      0.00%     66.67% # Class of executed instruction
system.cpu0.op_class::FloatMultAcc                  0      0.00%     66.67% # Class of executed instruction
system.cpu0.op_class::FloatDiv                      0      0.00%     66.67% # Class of executed instruction
system.cpu0.op_class::FloatMisc                     0      0.00%     66.67% # Class of executed instruction
system.cpu0.op_class::FloatSqrt                     0      0.00%     66.67% # Class of executed instruction
system.cpu0.op_class::SimdAdd                       0      0.00%     66.67% # Class of executed instruction
system.cpu0.op_class::SimdAddAcc                    0      0.00%     66.67% # Class of executed instruction
system.cpu0.op_class::SimdAlu                       0      0.00%     66.67% # Class of executed instruction
system.cpu0.op_class::SimdCmp                       0      0.00%     66.67% # Class of executed instruction
system.cpu0.op_class::SimdCvt                       0      0.00%     66.67% # Class of executed instruction
system.cpu0.op_class::SimdMisc                      0      0.00%     66.67% # Class of executed instruction
system.cpu0.op_class::SimdMult                      0      0.00%     66.67% # Class of executed instruction
system.cpu0.op_class::SimdMultAcc                   0      0.00%     66.67% # Class of executed instruction
system.cpu0.op_class::SimdShift                     0      0.00%     66.67% # Class of executed instruction
system.cpu0.op_class::SimdShiftAcc                  0      0.00%     66.67% # Class of executed instruction
system.cpu0.op_class::SimdDiv                       0      0.00%     66.67% # Class of executed instruction
system.cpu0.op_class::SimdSqrt                      0      0.00%     66.67% # Class of executed instruction
system.cpu0.op_class::SimdFloatAdd                  0      0.00%     66.67% # Class of executed instruction
system.cpu0.op_class::SimdFloatAlu                  0      0.00%     66.67% # Class of executed instruction
system.cpu0.op_class::SimdFloatCmp                  0      0.00%     66.67% # Class of executed instruction
system.cpu0.op_class::SimdFloatCvt                  0      0.00%     66.67% # Class of executed instruction
system.cpu0.op_class::SimdFloatDiv                  0      0.00%     66.67% # Class of executed instruction
system.cpu0.op_class::SimdFloatMisc                 0      0.00%     66.67% # Class of executed instruction
system.cpu0.op_class::SimdFloatMult                 0      0.00%     66.67% # Class of executed instruction
system.cpu0.op_class::SimdFloatMultAcc              0      0.00%     66.67% # Class of executed instruction
system.cpu0.op_class::SimdFloatSqrt                 0      0.00%     66.67% # Class of executed instruction
system.cpu0.op_class::SimdReduceAdd                 0      0.00%     66.67% # Class of executed instruction
system.cpu0.op_class::SimdReduceAlu                 0      0.00%     66.67% # Class of executed instruction
system.cpu0.op_class::SimdReduceCmp                 0      0.00%     66.67% # Class of executed instruction
system.cpu0.op_class::SimdFloatReduceAdd            0      0.00%     66.67% # Class of executed instruction
system.cpu0.op_class::SimdFloatReduceCmp            0      0.00%     66.67% # Class of executed instruction
system.cpu0.op_class::SimdAes                       0      0.00%     66.67% # Class of executed instruction
system.cpu0.op_class::SimdAesMix                    0      0.00%     66.67% # Class of executed instruction
system.cpu0.op_class::SimdSha1Hash                  0      0.00%     66.67% # Class of executed instruction
system.cpu0.op_class::SimdSha1Hash2                 0      0.00%     66.67% # Class of executed instruction
system.cpu0.op_class::SimdSha256Hash                0      0.00%     66.67% # Class of executed instruction
system.cpu0.op_class::SimdSha256Hash2               0      0.00%     66.67% # Class of executed instruction
system.cpu0.op_class::SimdShaSigma2                 0      0.00%     66.67% # Class of executed instruction
system.cpu0.op_class::SimdShaSigma3                 0      0.00%     66.67% # Class of executed instruction
system.cpu0.op_class::SimdPredAlu                   0      0.00%     66.67% # Class of executed instruction
system.cpu0.op_class::MemRead                       1     33.33%    100.00% # Class of executed instruction
system.cpu0.op_class::MemWrite                      0      0.00%    100.00% # Class of executed instruction
system.cpu0.op_class::FloatMemRead                  0      0.00%    100.00% # Class of executed instruction
system.cpu0.op_class::FloatMemWrite                 0      0.00%    100.00% # Class of executed instruction
system.cpu0.op_class::IprAccess                     0      0.00%    100.00% # Class of executed instruction
system.cpu0.op_class::InstPrefetch                  0      0.00%    100.00% # Class of executed instruction
system.cpu0.op_class::total                         3                       # Class of executed instruction
system.cpu0.toL2Bus.snoop_filter.hit_multi_requests         6765                       # Number of requests hitting in the snoop filter with multiple (>1) holders of the requested data.
system.cpu0.toL2Bus.snoop_filter.hit_multi_snoops            0                       # Number of snoops hitting in the snoop filter with multiple (>1) holders of the requested data.
system.cpu0.toL2Bus.snoop_filter.hit_single_requests       476361                       # Number of requests hitting in the snoop filter with a single holder of the requested data.
system.cpu0.toL2Bus.snoop_filter.hit_single_snoops            0                       # Number of snoops hitting in the snoop filter with a single holder of the requested data.
system.cpu0.toL2Bus.snoop_filter.tot_requests       953756                       # Total number of requests made to the snoop filter.
system.cpu0.toL2Bus.snoop_filter.tot_snoops            0                       # Total number of snoops made to the snoop filter.
system.cpu0.toL3Bus.snoop_filter.hit_multi_requests            0                       # Number of requests hitting in the snoop filter with multiple (>1) holders of the requested data.
system.cpu0.toL3Bus.snoop_filter.hit_multi_snoops            0                       # Number of snoops hitting in the snoop filter with multiple (>1) holders of the requested data.
system.cpu0.toL3Bus.snoop_filter.hit_single_requests            0                       # Number of requests hitting in the snoop filter with a single holder of the requested data.
system.cpu0.toL3Bus.snoop_filter.hit_single_snoops            0                       # Number of snoops hitting in the snoop filter with a single holder of the requested data.
system.cpu0.toL3Bus.snoop_filter.tot_requests         1273                       # Total number of requests made to the snoop filter.
system.cpu0.toL3Bus.snoop_filter.tot_snoops            0                       # Total number of snoops made to the snoop filter.
system.cpu0.workload.numSyscalls                    0                       # Number of system calls
system.cpu1.Branches                                1                       # Number of branches fetched
system.cpu1.committedInsts                          1                       # Number of instructions committed
system.cpu1.committedOps                            5                       # Number of ops (including micro ops) committed
system.cpu1.dcache.prefetcher.num_hwpf_issued          111                       # number of hwpf issued
system.cpu1.dcache.prefetcher.pfBufferHit            0                       # number of redundant prefetches already in prefetch queue
system.cpu1.dcache.prefetcher.pfIdentified          111                       # number of prefetch candidates identified
system.cpu1.dcache.prefetcher.pfInCache             0                       # number of redundant prefetches already in cache/mshr dropped
system.cpu1.dcache.prefetcher.pfRemovedFull            0                       # number of prefetches dropped due to prefetch queue size
system.cpu1.dcache.prefetcher.pfSpanPage            1                       # number of prefetches that crossed the page
system.cpu1.dtb.rdAccesses                          0                       # TLB accesses on read requests
system.cpu1.dtb.rdMisses                            0                       # TLB misses on read requests
system.cpu1.dtb.wrAccesses                          1                       # TLB accesses on write requests
system.cpu1.dtb.wrMisses                            0                       # TLB misses on write requests
system.cpu1.idle_fraction                           0                       # Percentage of idle cycles
system.cpu1.itb.rdAccesses                          0                       # TLB accesses on read requests
system.cpu1.itb.rdMisses                            0                       # TLB misses on read requests
system.cpu1.itb.wrAccesses                          2                       # TLB accesses on write requests
system.cpu1.itb.wrMisses                            0                       # TLB misses on write requests
system.cpu1.not_idle_fraction                       1                       # Percentage of non-idle cycles
system.cpu1.numCycles                               6                       # number of cpu cycles simulated
system.cpu1.numWorkItemsCompleted                   0                       # number of work items this cpu completed
system.cpu1.numWorkItemsStarted                     0                       # number of work items this cpu started
system.cpu1.num_busy_cycles                         6                       # Number of busy cycles
system.cpu1.num_conditional_control_insts            0                       # number of instructions that are conditional controls
system.cpu1.num_fp_alu_accesses                     0                       # Number of float alu accesses
system.cpu1.num_fp_insts                            0                       # number of float instructions
system.cpu1.num_fp_register_reads                   0                       # number of times the floating registers were read
system.cpu1.num_fp_register_writes                  0                       # number of times the floating registers were written
system.cpu1.num_func_calls                          1                       # number of times a function call or return occured
system.cpu1.num_idle_cycles                         0                       # Number of idle cycles
system.cpu1.num_int_alu_accesses                    5                       # Number of integer alu accesses
system.cpu1.num_int_insts                           5                       # number of integer instructions
system.cpu1.num_int_register_reads                  9                       # number of times the integer registers were read
system.cpu1.num_int_register_writes                 3                       # number of times the integer registers were written
system.cpu1.num_load_insts                          0                       # Number of load instructions
system.cpu1.num_mem_refs                            1                       # number of memory refs
system.cpu1.num_store_insts                         1                       # Number of store instructions
system.cpu1.num_vec_alu_accesses                    0                       # Number of vector alu accesses
system.cpu1.num_vec_insts                           0                       # number of vector instructions
system.cpu1.num_vec_register_reads                  0                       # number of times the vector registers were read
system.cpu1.num_vec_register_writes                 0                       # number of times the vector registers were written
system.cpu1.op_class::No_OpClass                    0      0.00%      0.00% # Class of executed instruction
system.cpu1.op_class::IntAlu                        4     80.00%     80.00% # Class of executed instruction
system.cpu1.op_class::IntMult                       0      0.00%     80.00% # Class of executed instruction
system.cpu1.op_class::IntDiv                        0      0.00%     80.00% # Class of executed instruction
system.cpu1.op_class::FloatAdd                      0      0.00%     80.00% # Class of executed instruction
system.cpu1.op_class::FloatCmp                      0      0.00%     80.00% # Class of executed instruction
system.cpu1.op_class::FloatCvt                      0      0.00%     80.00% # Class of executed instruction
system.cpu1.op_class::FloatMult                     0      0.00%     80.00% # Class of executed instruction
system.cpu1.op_class::FloatMultAcc                  0      0.00%     80.00% # Class of executed instruction
system.cpu1.op_class::FloatDiv                      0      0.00%     80.00% # Class of executed instruction
system.cpu1.op_class::FloatMisc                     0      0.00%     80.00% # Class of executed instruction
system.cpu1.op_class::FloatSqrt                     0      0.00%     80.00% # Class of executed instruction
system.cpu1.op_class::SimdAdd                       0      0.00%     80.00% # Class of executed instruction
system.cpu1.op_class::SimdAddAcc                    0      0.00%     80.00% # Class of executed instruction
system.cpu1.op_class::SimdAlu                       0      0.00%     80.00% # Class of executed instruction
system.cpu1.op_class::SimdCmp                       0      0.00%     80.00% # Class of executed instruction
system.cpu1.op_class::SimdCvt                       0      0.00%     80.00% # Class of executed instruction
system.cpu1.op_class::SimdMisc                      0      0.00%     80.00% # Class of executed instruction
system.cpu1.op_class::SimdMult                      0      0.00%     80.00% # Class of executed instruction
system.cpu1.op_class::SimdMultAcc                   0      0.00%     80.00% # Class of executed instruction
system.cpu1.op_class::SimdShift                     0      0.00%     80.00% # Class of executed instruction
system.cpu1.op_class::SimdShiftAcc                  0      0.00%     80.00% # Class of executed instruction
system.cpu1.op_class::SimdDiv                       0      0.00%     80.00% # Class of executed instruction
system.cpu1.op_class::SimdSqrt                      0      0.00%     80.00% # Class of executed instruction
system.cpu1.op_class::SimdFloatAdd                  0      0.00%     80.00% # Class of executed instruction
system.cpu1.op_class::SimdFloatAlu                  0      0.00%     80.00% # Class of executed instruction
system.cpu1.op_class::SimdFloatCmp                  0      0.00%     80.00% # Class of executed instruction
system.cpu1.op_class::SimdFloatCvt                  0      0.00%     80.00% # Class of executed instruction
system.cpu1.op_class::SimdFloatDiv                  0      0.00%     80.00% # Class of executed instruction
system.cpu1.op_class::SimdFloatMisc                 0      0.00%     80.00% # Class of executed instruction
system.cpu1.op_class::SimdFloatMult                 0      0.00%     80.00% # Class of executed instruction
system.cpu1.op_class::SimdFloatMultAcc              0      0.00%     80.00% # Class of executed instruction
system.cpu1.op_class::SimdFloatSqrt                 0      0.00%     80.00% # Class of executed instruction
system.cpu1.op_class::SimdReduceAdd                 0      0.00%     80.00% # Class of executed instruction
system.cpu1.op_class::SimdReduceAlu                 0      0.00%     80.00% # Class of executed instruction
system.cpu1.op_class::SimdReduceCmp                 0      0.00%     80.00% # Class of executed instruction
system.cpu1.op_class::SimdFloatReduceAdd            0      0.00%     80.00% # Class of executed instruction
system.cpu1.op_class::SimdFloatReduceCmp            0      0.00%     80.00% # Class of executed instruction
system.cpu1.op_class::SimdAes                       0      0.00%     80.00% # Class of executed instruction
system.cpu1.op_class::SimdAesMix                    0      0.00%     80.00% # Class of executed instruction
system.cpu1.op_class::SimdSha1Hash                  0      0.00%     80.00% # Class of executed instruction
system.cpu1.op_class::SimdSha1Hash2                 0      0.00%     80.00% # Class of executed instruction
system.cpu1.op_class::SimdSha256Hash                0      0.00%     80.00% # Class of executed instruction
system.cpu1.op_class::SimdSha256Hash2               0      0.00%     80.00% # Class of executed instruction
system.cpu1.op_class::SimdShaSigma2                 0      0.00%     80.00% # Class of executed instruction
system.cpu1.op_class::SimdShaSigma3                 0      0.00%     80.00% # Class of executed instruction
system.cpu1.op_class::SimdPredAlu                   0      0.00%     80.00% # Class of executed instruction
system.cpu1.op_class::MemRead                       0      0.00%     80.00% # Class of executed instruction
system.cpu1.op_class::MemWrite                      1     20.00%    100.00% # Class of executed instruction
system.cpu1.op_class::FloatMemRead                  0      0.00%    100.00% # Class of executed instruction
system.cpu1.op_class::FloatMemWrite                 0      0.00%    100.00% # Class of executed instruction
system.cpu1.op_class::IprAccess                     0      0.00%    100.00% # Class of executed instruction
system.cpu1.op_class::InstPrefetch                  0      0.00%    100.00% # Class of executed instruction
system.cpu1.op_class::total                         5                       # Class of executed instruction
system.cpu1.toL2Bus.snoop_filter.hit_multi_requests           29                       # Number of requests hitting in the snoop filter with multiple (>1) holders of the requested data.
system.cpu1.toL2Bus.snoop_filter.hit_multi_snoops            0                       # Number of snoops hitting in the snoop filter with multiple (>1) holders of the requested data.
system.cpu1.toL2Bus.snoop_filter.hit_single_requests        37544                       # Number of requests hitting in the snoop filter with a single holder of the requested data.
system.cpu1.toL2Bus.snoop_filter.hit_single_snoops          327                       # Number of snoops hitting in the snoop filter with a single holder of the requested data.
system.cpu1.toL2Bus.snoop_filter.tot_requests        75886                       # Total number of requests made to the snoop filter.
system.cpu1.toL2Bus.snoop_filter.tot_snoops          327                       # Total number of snoops made to the snoop filter.
system.cpu1.toL3Bus.snoop_filter.hit_multi_requests            0                       # Number of requests hitting in the snoop filter with multiple (>1) holders of the requested data.
system.cpu1.toL3Bus.snoop_filter.hit_multi_snoops            0                       # Number of snoops hitting in the snoop filter with multiple (>1) holders of the requested data.
system.cpu1.toL3Bus.snoop_filter.hit_single_requests        16331                       # Number of requests hitting in the snoop filter with a single holder of the requested data.
system.cpu1.toL3Bus.snoop_filter.hit_single_snoops            0                       # Number of snoops hitting in the snoop filter with a single holder of the requested data.
system.cpu1.toL3Bus.snoop_filter.tot_requests        37083                       # Total number of requests made to the snoop filter.
system.cpu1.toL3Bus.snoop_filter.tot_snoops            0                       # Total number of snoops made to the snoop filter.
system.cpu1.workload.numSyscalls                11156                       # Number of system calls
system.membus.snoop_filter.hit_multi_requests            0                       # Number of requests hitting in the snoop filter with multiple (>1) holders of the requested data.
system.membus.snoop_filter.hit_multi_snoops            0                       # Number of snoops hitting in the snoop filter with multiple (>1) holders of the requested data.
system.membus.snoop_filter.hit_single_requests            0                       # Number of requests hitting in the snoop filter with a single holder of the requested data.
system.membus.snoop_filter.hit_single_snoops            0                       # Number of snoops hitting in the snoop filter with a single holder of the requested data.
system.membus.snoop_filter.tot_requests         22015                       # Total number of requests made to the snoop filter.
system.membus.snoop_filter.tot_snoops               0                       # Total number of snoops made to the snoop filter.
system.switch_cpus0.Branches                   175370                       # Number of branches fetched
system.switch_cpus0.committedInsts             989568                       # Number of instructions committed
system.switch_cpus0.committedOps              1784075                       # Number of ops (including micro ops) committed
system.switch_cpus0.dtb.rdAccesses             363907                       # TLB accesses on read requests
system.switch_cpus0.dtb.rdMisses                 1803                       # TLB misses on read requests
system.switch_cpus0.dtb.wrAccesses             162695                       # TLB accesses on write requests
system.switch_cpus0.dtb.wrMisses                  343                       # TLB misses on write requests
system.switch_cpus0.idle_fraction            0.000000                       # Percentage of idle cycles
system.switch_cpus0.itb.rdAccesses                  0                       # TLB accesses on read requests
system.switch_cpus0.itb.rdMisses                    0                       # TLB misses on read requests
system.switch_cpus0.itb.wrAccesses            1332423                       # TLB accesses on write requests
system.switch_cpus0.itb.wrMisses                   37                       # TLB misses on write requests
system.switch_cpus0.not_idle_fraction        1.000000                       # Percentage of non-idle cycles
system.switch_cpus0.numCycles                 5842426                       # number of cpu cycles simulated
system.switch_cpus0.numWorkItemsCompleted            0                       # number of work items this cpu completed
system.switch_cpus0.numWorkItemsStarted             0                       # number of work items this cpu started
system.switch_cpus0.num_busy_cycles      5842425.243901                       # Number of busy cycles
system.switch_cpus0.num_cc_register_reads       791877                       # number of times the CC registers were read
system.switch_cpus0.num_cc_register_writes       380268                       # number of times the CC registers were written
system.switch_cpus0.num_conditional_control_insts       109675                       # number of instructions that are conditional controls
system.switch_cpus0.num_fp_alu_accesses        366895                       # Number of float alu accesses
system.switch_cpus0.num_fp_insts               366895                       # number of float instructions
system.switch_cpus0.num_fp_register_reads       555424                       # number of times the floating registers were read
system.switch_cpus0.num_fp_register_writes       315737                       # number of times the floating registers were written
system.switch_cpus0.num_func_calls              54893                       # number of times a function call or return occured
system.switch_cpus0.num_idle_cycles          0.756099                       # Number of idle cycles
system.switch_cpus0.num_int_alu_accesses      1573823                       # Number of integer alu accesses
system.switch_cpus0.num_int_insts             1573823                       # number of integer instructions
system.switch_cpus0.num_int_register_reads      3370594                       # number of times the integer registers were read
system.switch_cpus0.num_int_register_writes      1105398                       # number of times the integer registers were written
system.switch_cpus0.num_load_insts             363618                       # Number of load instructions
system.switch_cpus0.num_mem_refs               526313                       # number of memory refs
system.switch_cpus0.num_store_insts            162695                       # Number of store instructions
system.switch_cpus0.num_vec_alu_accesses            0                       # Number of vector alu accesses
system.switch_cpus0.num_vec_insts                   0                       # number of vector instructions
system.switch_cpus0.num_vec_register_reads            0                       # number of times the vector registers were read
system.switch_cpus0.num_vec_register_writes            0                       # number of times the vector registers were written
system.switch_cpus0.op_class::No_OpClass         9406      0.53%      0.53% # Class of executed instruction
system.switch_cpus0.op_class::IntAlu          1066553     59.78%     60.31% # Class of executed instruction
system.switch_cpus0.op_class::IntMult            4198      0.24%     60.54% # Class of executed instruction
system.switch_cpus0.op_class::IntDiv                0      0.00%     60.54% # Class of executed instruction
system.switch_cpus0.op_class::FloatAdd           3712      0.21%     60.75% # Class of executed instruction
system.switch_cpus0.op_class::FloatCmp              0      0.00%     60.75% # Class of executed instruction
system.switch_cpus0.op_class::FloatCvt              0      0.00%     60.75% # Class of executed instruction
system.switch_cpus0.op_class::FloatMult             0      0.00%     60.75% # Class of executed instruction
system.switch_cpus0.op_class::FloatMultAcc            0      0.00%     60.75% # Class of executed instruction
system.switch_cpus0.op_class::FloatDiv              0      0.00%     60.75% # Class of executed instruction
system.switch_cpus0.op_class::FloatMisc             0      0.00%     60.75% # Class of executed instruction
system.switch_cpus0.op_class::FloatSqrt             0      0.00%     60.75% # Class of executed instruction
system.switch_cpus0.op_class::SimdAdd               0      0.00%     60.75% # Class of executed instruction
system.switch_cpus0.op_class::SimdAddAcc            0      0.00%     60.75% # Class of executed instruction
system.switch_cpus0.op_class::SimdAlu           11014      0.62%     61.37% # Class of executed instruction
system.switch_cpus0.op_class::SimdCmp               0      0.00%     61.37% # Class of executed instruction
system.switch_cpus0.op_class::SimdCvt               0      0.00%     61.37% # Class of executed instruction
system.switch_cpus0.op_class::SimdMisc            292      0.02%     61.39% # Class of executed instruction
system.switch_cpus0.op_class::SimdMult              0      0.00%     61.39% # Class of executed instruction
system.switch_cpus0.op_class::SimdMultAcc            0      0.00%     61.39% # Class of executed instruction
system.switch_cpus0.op_class::SimdShift             0      0.00%     61.39% # Class of executed instruction
system.switch_cpus0.op_class::SimdShiftAcc            0      0.00%     61.39% # Class of executed instruction
system.switch_cpus0.op_class::SimdDiv               0      0.00%     61.39% # Class of executed instruction
system.switch_cpus0.op_class::SimdSqrt              0      0.00%     61.39% # Class of executed instruction
system.switch_cpus0.op_class::SimdFloatAdd        66172      3.71%     65.10% # Class of executed instruction
system.switch_cpus0.op_class::SimdFloatAlu            0      0.00%     65.10% # Class of executed instruction
system.switch_cpus0.op_class::SimdFloatCmp          224      0.01%     65.11% # Class of executed instruction
system.switch_cpus0.op_class::SimdFloatCvt        28388      1.59%     66.70% # Class of executed instruction
system.switch_cpus0.op_class::SimdFloatDiv         2460      0.14%     66.84% # Class of executed instruction
system.switch_cpus0.op_class::SimdFloatMisc            0      0.00%     66.84% # Class of executed instruction
system.switch_cpus0.op_class::SimdFloatMult        65085      3.65%     70.48% # Class of executed instruction
system.switch_cpus0.op_class::SimdFloatMultAcc            0      0.00%     70.48% # Class of executed instruction
system.switch_cpus0.op_class::SimdFloatSqrt          258      0.01%     70.50% # Class of executed instruction
system.switch_cpus0.op_class::SimdReduceAdd            0      0.00%     70.50% # Class of executed instruction
system.switch_cpus0.op_class::SimdReduceAlu            0      0.00%     70.50% # Class of executed instruction
system.switch_cpus0.op_class::SimdReduceCmp            0      0.00%     70.50% # Class of executed instruction
system.switch_cpus0.op_class::SimdFloatReduceAdd            0      0.00%     70.50% # Class of executed instruction
system.switch_cpus0.op_class::SimdFloatReduceCmp            0      0.00%     70.50% # Class of executed instruction
system.switch_cpus0.op_class::SimdAes               0      0.00%     70.50% # Class of executed instruction
system.switch_cpus0.op_class::SimdAesMix            0      0.00%     70.50% # Class of executed instruction
system.switch_cpus0.op_class::SimdSha1Hash            0      0.00%     70.50% # Class of executed instruction
system.switch_cpus0.op_class::SimdSha1Hash2            0      0.00%     70.50% # Class of executed instruction
system.switch_cpus0.op_class::SimdSha256Hash            0      0.00%     70.50% # Class of executed instruction
system.switch_cpus0.op_class::SimdSha256Hash2            0      0.00%     70.50% # Class of executed instruction
system.switch_cpus0.op_class::SimdShaSigma2            0      0.00%     70.50% # Class of executed instruction
system.switch_cpus0.op_class::SimdShaSigma3            0      0.00%     70.50% # Class of executed instruction
system.switch_cpus0.op_class::SimdPredAlu            0      0.00%     70.50% # Class of executed instruction
system.switch_cpus0.op_class::MemRead          224816     12.60%     83.10% # Class of executed instruction
system.switch_cpus0.op_class::MemWrite         135708      7.61%     90.71% # Class of executed instruction
system.switch_cpus0.op_class::FloatMemRead       138802      7.78%     98.49% # Class of executed instruction
system.switch_cpus0.op_class::FloatMemWrite        26987      1.51%    100.00% # Class of executed instruction
system.switch_cpus0.op_class::IprAccess             0      0.00%    100.00% # Class of executed instruction
system.switch_cpus0.op_class::InstPrefetch            0      0.00%    100.00% # Class of executed instruction
system.switch_cpus0.op_class::total           1784075                       # Class of executed instruction
system.switch_cpus1.Branches                   224834                       # Number of branches fetched
system.switch_cpus1.committedInsts            1000001                       # Number of instructions committed
system.switch_cpus1.committedOps              2024684                       # Number of ops (including micro ops) committed
system.switch_cpus1.dtb.rdAccesses             291888                       # TLB accesses on read requests
system.switch_cpus1.dtb.rdMisses                   40                       # TLB misses on read requests
system.switch_cpus1.dtb.wrAccesses             213202                       # TLB accesses on write requests
system.switch_cpus1.dtb.wrMisses                    3                       # TLB misses on write requests
system.switch_cpus1.idle_fraction            0.000000                       # Percentage of idle cycles
system.switch_cpus1.itb.rdAccesses                  0                       # TLB accesses on read requests
system.switch_cpus1.itb.rdMisses                    0                       # TLB misses on read requests
system.switch_cpus1.itb.wrAccesses            1267697                       # TLB accesses on write requests
system.switch_cpus1.itb.wrMisses                   27                       # TLB misses on write requests
system.switch_cpus1.not_idle_fraction        1.000000                       # Percentage of non-idle cycles
system.switch_cpus1.numCycles                 5842426                       # number of cpu cycles simulated
system.switch_cpus1.numWorkItemsCompleted            0                       # number of work items this cpu completed
system.switch_cpus1.numWorkItemsStarted             0                       # number of work items this cpu started
system.switch_cpus1.num_busy_cycles      5842425.243901                       # Number of busy cycles
system.switch_cpus1.num_cc_register_reads       839766                       # number of times the CC registers were read
system.switch_cpus1.num_cc_register_writes       449805                       # number of times the CC registers were written
system.switch_cpus1.num_conditional_control_insts       102459                       # number of instructions that are conditional controls
system.switch_cpus1.num_fp_alu_accesses         16406                       # Number of float alu accesses
system.switch_cpus1.num_fp_insts                16406                       # number of float instructions
system.switch_cpus1.num_fp_register_reads        27540                       # number of times the floating registers were read
system.switch_cpus1.num_fp_register_writes        14430                       # number of times the floating registers were written
system.switch_cpus1.num_func_calls             106054                       # number of times a function call or return occured
system.switch_cpus1.num_idle_cycles          0.756099                       # Number of idle cycles
system.switch_cpus1.num_int_alu_accesses      2003876                       # Number of integer alu accesses
system.switch_cpus1.num_int_insts             2003876                       # number of integer instructions
system.switch_cpus1.num_int_register_reads      4247890                       # number of times the integer registers were read
system.switch_cpus1.num_int_register_writes      1572123                       # number of times the integer registers were written
system.switch_cpus1.num_load_insts             291886                       # Number of load instructions
system.switch_cpus1.num_mem_refs               505086                       # number of memory refs
system.switch_cpus1.num_store_insts            213200                       # Number of store instructions
system.switch_cpus1.num_vec_alu_accesses            0                       # Number of vector alu accesses
system.switch_cpus1.num_vec_insts                   0                       # number of vector instructions
system.switch_cpus1.num_vec_register_reads            0                       # number of times the vector registers were read
system.switch_cpus1.num_vec_register_writes            0                       # number of times the vector registers were written
system.switch_cpus1.op_class::No_OpClass         6797      0.34%      0.34% # Class of executed instruction
system.switch_cpus1.op_class::IntAlu          1497763     73.98%     74.31% # Class of executed instruction
system.switch_cpus1.op_class::IntMult             941      0.05%     74.36% # Class of executed instruction
system.switch_cpus1.op_class::IntDiv             2289      0.11%     74.47% # Class of executed instruction
system.switch_cpus1.op_class::FloatAdd            654      0.03%     74.50% # Class of executed instruction
system.switch_cpus1.op_class::FloatCmp              0      0.00%     74.50% # Class of executed instruction
system.switch_cpus1.op_class::FloatCvt              0      0.00%     74.50% # Class of executed instruction
system.switch_cpus1.op_class::FloatMult             0      0.00%     74.50% # Class of executed instruction
system.switch_cpus1.op_class::FloatMultAcc            0      0.00%     74.50% # Class of executed instruction
system.switch_cpus1.op_class::FloatDiv              0      0.00%     74.50% # Class of executed instruction
system.switch_cpus1.op_class::FloatMisc             0      0.00%     74.50% # Class of executed instruction
system.switch_cpus1.op_class::FloatSqrt             0      0.00%     74.50% # Class of executed instruction
system.switch_cpus1.op_class::SimdAdd               0      0.00%     74.50% # Class of executed instruction
system.switch_cpus1.op_class::SimdAddAcc            0      0.00%     74.50% # Class of executed instruction
system.switch_cpus1.op_class::SimdAlu            2624      0.13%     74.63% # Class of executed instruction
system.switch_cpus1.op_class::SimdCmp               0      0.00%     74.63% # Class of executed instruction
system.switch_cpus1.op_class::SimdCvt            2630      0.13%     74.76% # Class of executed instruction
system.switch_cpus1.op_class::SimdMisc           5900      0.29%     75.05% # Class of executed instruction
system.switch_cpus1.op_class::SimdMult              0      0.00%     75.05% # Class of executed instruction
system.switch_cpus1.op_class::SimdMultAcc            0      0.00%     75.05% # Class of executed instruction
system.switch_cpus1.op_class::SimdShift             0      0.00%     75.05% # Class of executed instruction
system.switch_cpus1.op_class::SimdShiftAcc            0      0.00%     75.05% # Class of executed instruction
system.switch_cpus1.op_class::SimdDiv               0      0.00%     75.05% # Class of executed instruction
system.switch_cpus1.op_class::SimdSqrt              0      0.00%     75.05% # Class of executed instruction
system.switch_cpus1.op_class::SimdFloatAdd            0      0.00%     75.05% # Class of executed instruction
system.switch_cpus1.op_class::SimdFloatAlu            0      0.00%     75.05% # Class of executed instruction
system.switch_cpus1.op_class::SimdFloatCmp            0      0.00%     75.05% # Class of executed instruction
system.switch_cpus1.op_class::SimdFloatCvt            0      0.00%     75.05% # Class of executed instruction
system.switch_cpus1.op_class::SimdFloatDiv            0      0.00%     75.05% # Class of executed instruction
system.switch_cpus1.op_class::SimdFloatMisc            0      0.00%     75.05% # Class of executed instruction
system.switch_cpus1.op_class::SimdFloatMult            0      0.00%     75.05% # Class of executed instruction
system.switch_cpus1.op_class::SimdFloatMultAcc            0      0.00%     75.05% # Class of executed instruction
system.switch_cpus1.op_class::SimdFloatSqrt            0      0.00%     75.05% # Class of executed instruction
system.switch_cpus1.op_class::SimdReduceAdd            0      0.00%     75.05% # Class of executed instruction
system.switch_cpus1.op_class::SimdReduceAlu            0      0.00%     75.05% # Class of executed instruction
system.switch_cpus1.op_class::SimdReduceCmp            0      0.00%     75.05% # Class of executed instruction
system.switch_cpus1.op_class::SimdFloatReduceAdd            0      0.00%     75.05% # Class of executed instruction
system.switch_cpus1.op_class::SimdFloatReduceCmp            0      0.00%     75.05% # Class of executed instruction
system.switch_cpus1.op_class::SimdAes               0      0.00%     75.05% # Class of executed instruction
system.switch_cpus1.op_class::SimdAesMix            0      0.00%     75.05% # Class of executed instruction
system.switch_cpus1.op_class::SimdSha1Hash            0      0.00%     75.05% # Class of executed instruction
system.switch_cpus1.op_class::SimdSha1Hash2            0      0.00%     75.05% # Class of executed instruction
system.switch_cpus1.op_class::SimdSha256Hash            0      0.00%     75.05% # Class of executed instruction
system.switch_cpus1.op_class::SimdSha256Hash2            0      0.00%     75.05% # Class of executed instruction
system.switch_cpus1.op_class::SimdShaSigma2            0      0.00%     75.05% # Class of executed instruction
system.switch_cpus1.op_class::SimdShaSigma3            0      0.00%     75.05% # Class of executed instruction
system.switch_cpus1.op_class::SimdPredAlu            0      0.00%     75.05% # Class of executed instruction
system.switch_cpus1.op_class::MemRead          289904     14.32%     89.37% # Class of executed instruction
system.switch_cpus1.op_class::MemWrite         212546     10.50%     99.87% # Class of executed instruction
system.switch_cpus1.op_class::FloatMemRead         1982      0.10%     99.97% # Class of executed instruction
system.switch_cpus1.op_class::FloatMemWrite          654      0.03%    100.00% # Class of executed instruction
system.switch_cpus1.op_class::IprAccess             0      0.00%    100.00% # Class of executed instruction
system.switch_cpus1.op_class::InstPrefetch            0      0.00%    100.00% # Class of executed instruction
system.switch_cpus1.op_class::total           2024684                       # Class of executed instruction
system.switch_cpus_10.branchPred.BTBCorrect            0                       # Number of correct BTB predictions (this stat may not work properly.
system.switch_cpus_10.branchPred.BTBHitPct     0.000000                       # BTB Hit Percentage
system.switch_cpus_10.branchPred.BTBHits            0                       # Number of BTB hits
system.switch_cpus_10.branchPred.BTBLookups      8845219                       # Number of BTB lookups
system.switch_cpus_10.branchPred.RASInCorrect         1323                       # Number of incorrect RAS predictions.
system.switch_cpus_10.branchPred.condIncorrect       724103                       # Number of conditional branches incorrect
system.switch_cpus_10.branchPred.condPredicted      8320185                       # Number of conditional branches predicted
system.switch_cpus_10.branchPred.indirectHits      4345514                       # Number of indirect target hits.
system.switch_cpus_10.branchPred.indirectLookups      8845219                       # Number of indirect predictor lookups.
system.switch_cpus_10.branchPred.indirectMisses      4499705                       # Number of indirect misses.
system.switch_cpus_10.branchPred.lookups     11791782                       # Number of BP lookups
system.switch_cpus_10.branchPred.usedRAS      1576923                       # Number of times the RAS was used to get a target.
system.switch_cpus_10.branchPredindirectMispredicted       600288                       # Number of mispredicted indirect branches.
system.switch_cpus_10.cc_regfile_reads       41635413                       # number of cc regfile reads
system.switch_cpus_10.cc_regfile_writes      20452386                       # number of cc regfile writes
system.switch_cpus_10.commit.amos                   0                       # Number of atomic instructions committed
system.switch_cpus_10.commit.branchMispredicts       724120                       # The number of times a branch was mispredicted
system.switch_cpus_10.commit.branches         8861297                       # Number of branches committed
system.switch_cpus_10.commit.bw_lim_events      4105757                       # number cycles where commit BW limit reached
system.switch_cpus_10.commit.commitSquashedInsts     16731607                       # The number of squashed insts skipped by commit
system.switch_cpus_10.commit.committedInsts     50000000                       # Number of instructions committed
system.switch_cpus_10.commit.committedOps     90128426                       # Number of ops (including micro ops) committed
system.switch_cpus_10.commit.committed_per_cycle::samples     37988811                       # Number of insts commited each cycle
system.switch_cpus_10.commit.committed_per_cycle::mean     2.372499                       # Number of insts commited each cycle
system.switch_cpus_10.commit.committed_per_cycle::stdev     2.693055                       # Number of insts commited each cycle
system.switch_cpus_10.commit.committed_per_cycle::underflows            0      0.00%      0.00% # Number of insts commited each cycle
system.switch_cpus_10.commit.committed_per_cycle::0     14387729     37.87%     37.87% # Number of insts commited each cycle
system.switch_cpus_10.commit.committed_per_cycle::1      5405479     14.23%     52.10% # Number of insts commited each cycle
system.switch_cpus_10.commit.committed_per_cycle::2      2951440      7.77%     59.87% # Number of insts commited each cycle
system.switch_cpus_10.commit.committed_per_cycle::3      5307847     13.97%     73.84% # Number of insts commited each cycle
system.switch_cpus_10.commit.committed_per_cycle::4      2051348      5.40%     79.24% # Number of insts commited each cycle
system.switch_cpus_10.commit.committed_per_cycle::5      1757033      4.63%     83.87% # Number of insts commited each cycle
system.switch_cpus_10.commit.committed_per_cycle::6      1095333      2.88%     86.75% # Number of insts commited each cycle
system.switch_cpus_10.commit.committed_per_cycle::7       926845      2.44%     89.19% # Number of insts commited each cycle
system.switch_cpus_10.commit.committed_per_cycle::8      4105757     10.81%    100.00% # Number of insts commited each cycle
system.switch_cpus_10.commit.committed_per_cycle::overflows            0      0.00%    100.00% # Number of insts commited each cycle
system.switch_cpus_10.commit.committed_per_cycle::min_value            0                       # Number of insts commited each cycle
system.switch_cpus_10.commit.committed_per_cycle::max_value            8                       # Number of insts commited each cycle
system.switch_cpus_10.commit.committed_per_cycle::total     37988811                       # Number of insts commited each cycle
system.switch_cpus_10.commit.fp_insts        18590689                       # Number of committed floating point instructions.
system.switch_cpus_10.commit.function_calls      1386335                       # Number of function calls committed.
system.switch_cpus_10.commit.int_insts       79437546                       # Number of committed integer instructions.
system.switch_cpus_10.commit.loads           18367487                       # Number of loads committed
system.switch_cpus_10.commit.membars                0                       # Number of memory barriers committed
system.switch_cpus_10.commit.op_class_0::No_OpClass       478993      0.53%      0.53% # Class of committed instruction
system.switch_cpus_10.commit.op_class_0::IntAlu     53847344     59.75%     60.28% # Class of committed instruction
system.switch_cpus_10.commit.op_class_0::IntMult       208976      0.23%     60.51% # Class of committed instruction
system.switch_cpus_10.commit.op_class_0::IntDiv            0      0.00%     60.51% # Class of committed instruction
system.switch_cpus_10.commit.op_class_0::FloatAdd       191658      0.21%     60.72% # Class of committed instruction
system.switch_cpus_10.commit.op_class_0::FloatCmp            0      0.00%     60.72% # Class of committed instruction
system.switch_cpus_10.commit.op_class_0::FloatCvt            0      0.00%     60.72% # Class of committed instruction
system.switch_cpus_10.commit.op_class_0::FloatMult            0      0.00%     60.72% # Class of committed instruction
system.switch_cpus_10.commit.op_class_0::FloatMultAcc            0      0.00%     60.72% # Class of committed instruction
system.switch_cpus_10.commit.op_class_0::FloatDiv            0      0.00%     60.72% # Class of committed instruction
system.switch_cpus_10.commit.op_class_0::FloatMisc            0      0.00%     60.72% # Class of committed instruction
system.switch_cpus_10.commit.op_class_0::FloatSqrt            0      0.00%     60.72% # Class of committed instruction
system.switch_cpus_10.commit.op_class_0::SimdAdd            0      0.00%     60.72% # Class of committed instruction
system.switch_cpus_10.commit.op_class_0::SimdAddAcc            0      0.00%     60.72% # Class of committed instruction
system.switch_cpus_10.commit.op_class_0::SimdAlu       561670      0.62%     61.34% # Class of committed instruction
system.switch_cpus_10.commit.op_class_0::SimdCmp            0      0.00%     61.34% # Class of committed instruction
system.switch_cpus_10.commit.op_class_0::SimdCvt            0      0.00%     61.34% # Class of committed instruction
system.switch_cpus_10.commit.op_class_0::SimdMisc        15079      0.02%     61.36% # Class of committed instruction
system.switch_cpus_10.commit.op_class_0::SimdMult            0      0.00%     61.36% # Class of committed instruction
system.switch_cpus_10.commit.op_class_0::SimdMultAcc            0      0.00%     61.36% # Class of committed instruction
system.switch_cpus_10.commit.op_class_0::SimdShift            0      0.00%     61.36% # Class of committed instruction
system.switch_cpus_10.commit.op_class_0::SimdShiftAcc            0      0.00%     61.36% # Class of committed instruction
system.switch_cpus_10.commit.op_class_0::SimdDiv            0      0.00%     61.36% # Class of committed instruction
system.switch_cpus_10.commit.op_class_0::SimdSqrt            0      0.00%     61.36% # Class of committed instruction
system.switch_cpus_10.commit.op_class_0::SimdFloatAdd      3361679      3.73%     65.09% # Class of committed instruction
system.switch_cpus_10.commit.op_class_0::SimdFloatAlu            0      0.00%     65.09% # Class of committed instruction
system.switch_cpus_10.commit.op_class_0::SimdFloatCmp        11561      0.01%     65.10% # Class of committed instruction
system.switch_cpus_10.commit.op_class_0::SimdFloatCvt      1445211      1.60%     66.71% # Class of committed instruction
system.switch_cpus_10.commit.op_class_0::SimdFloatDiv       123078      0.14%     66.84% # Class of committed instruction
system.switch_cpus_10.commit.op_class_0::SimdFloatMisc            0      0.00%     66.84% # Class of committed instruction
system.switch_cpus_10.commit.op_class_0::SimdFloatMult      3308032      3.67%     70.51% # Class of committed instruction
system.switch_cpus_10.commit.op_class_0::SimdFloatMultAcc            0      0.00%     70.51% # Class of committed instruction
system.switch_cpus_10.commit.op_class_0::SimdFloatSqrt        11773      0.01%     70.53% # Class of committed instruction
system.switch_cpus_10.commit.op_class_0::SimdReduceAdd            0      0.00%     70.53% # Class of committed instruction
system.switch_cpus_10.commit.op_class_0::SimdReduceAlu            0      0.00%     70.53% # Class of committed instruction
system.switch_cpus_10.commit.op_class_0::SimdReduceCmp            0      0.00%     70.53% # Class of committed instruction
system.switch_cpus_10.commit.op_class_0::SimdFloatReduceAdd            0      0.00%     70.53% # Class of committed instruction
system.switch_cpus_10.commit.op_class_0::SimdFloatReduceCmp            0      0.00%     70.53% # Class of committed instruction
system.switch_cpus_10.commit.op_class_0::SimdAes            0      0.00%     70.53% # Class of committed instruction
system.switch_cpus_10.commit.op_class_0::SimdAesMix            0      0.00%     70.53% # Class of committed instruction
system.switch_cpus_10.commit.op_class_0::SimdSha1Hash            0      0.00%     70.53% # Class of committed instruction
system.switch_cpus_10.commit.op_class_0::SimdSha1Hash2            0      0.00%     70.53% # Class of committed instruction
system.switch_cpus_10.commit.op_class_0::SimdSha256Hash            0      0.00%     70.53% # Class of committed instruction
system.switch_cpus_10.commit.op_class_0::SimdSha256Hash2            0      0.00%     70.53% # Class of committed instruction
system.switch_cpus_10.commit.op_class_0::SimdShaSigma2            0      0.00%     70.53% # Class of committed instruction
system.switch_cpus_10.commit.op_class_0::SimdShaSigma3            0      0.00%     70.53% # Class of committed instruction
system.switch_cpus_10.commit.op_class_0::SimdPredAlu            0      0.00%     70.53% # Class of committed instruction
system.switch_cpus_10.commit.op_class_0::MemRead     11351580     12.59%     83.12% # Class of committed instruction
system.switch_cpus_10.commit.op_class_0::MemWrite      6846416      7.60%     90.72% # Class of committed instruction
system.switch_cpus_10.commit.op_class_0::FloatMemRead      7015907      7.78%     98.50% # Class of committed instruction
system.switch_cpus_10.commit.op_class_0::FloatMemWrite      1349469      1.50%    100.00% # Class of committed instruction
system.switch_cpus_10.commit.op_class_0::IprAccess            0      0.00%    100.00% # Class of committed instruction
system.switch_cpus_10.commit.op_class_0::InstPrefetch            0      0.00%    100.00% # Class of committed instruction
system.switch_cpus_10.commit.op_class_0::total     90128426                       # Class of committed instruction
system.switch_cpus_10.commit.refs            26563372                       # Number of memory references committed
system.switch_cpus_10.commit.swp_count              0                       # Number of s/w prefetches committed
system.switch_cpus_10.commit.vec_insts              0                       # Number of committed Vector instructions.
system.switch_cpus_10.committedInsts         50000000                       # Number of Instructions Simulated
system.switch_cpus_10.committedOps           90128426                       # Number of Ops (including micro ops) Simulated
system.switch_cpus_10.cpi                    0.810399                       # CPI: Cycles Per Instruction
system.switch_cpus_10.cpi_total              0.810399                       # CPI: Total CPI of All Threads
system.switch_cpus_10.decode.BlockedCycles      2442610                       # Number of cycles decode is blocked
system.switch_cpus_10.decode.DecodedInsts    115819216                       # Number of instructions handled by decode
system.switch_cpus_10.decode.IdleCycles      19151317                       # Number of cycles decode is idle
system.switch_cpus_10.decode.RunCycles       18048239                       # Number of cycles decode is running
system.switch_cpus_10.decode.SquashCycles       725972                       # Number of cycles decode is squashing
system.switch_cpus_10.decode.UnblockCycles       149809                       # Number of cycles decode is unblocking
system.switch_cpus_10.dtb.rdAccesses         20399502                       # TLB accesses on read requests
system.switch_cpus_10.dtb.rdMisses             117356                       # TLB misses on read requests
system.switch_cpus_10.dtb.wrAccesses          9188540                       # TLB accesses on write requests
system.switch_cpus_10.dtb.wrMisses              19149                       # TLB misses on write requests
system.switch_cpus_10.fetch.Branches         11791782                       # Number of branches that fetch encountered
system.switch_cpus_10.fetch.CacheLines        9469099                       # Number of cache lines fetched
system.switch_cpus_10.fetch.Cycles           19929924                       # Number of cycles fetch has run and was not squashing or blocked
system.switch_cpus_10.fetch.IcacheSquashes       321293                       # Number of outstanding Icache misses that were squashed
system.switch_cpus_10.fetch.IcacheWaitRetryStallCycles          435                       # Number of stall cycles due to full MSHR
system.switch_cpus_10.fetch.Insts            65902530                       # Number of instructions fetch has processed
system.switch_cpus_10.fetch.MiscStallCycles          111                       # Number of cycles fetch has spent waiting on interrupts, or bad addresses, or out of MSHRs
system.switch_cpus_10.fetch.PendingTrapStallCycles          154                       # Number of stall cycles due to pending traps
system.switch_cpus_10.fetch.SquashCycles      1451944                       # Number of cycles fetch has spent squashing
system.switch_cpus_10.fetch.branchRate       0.291012                       # Number of branch fetches per cycle
system.switch_cpus_10.fetch.icacheStallCycles     19861353                       # Number of cycles fetch is stalled on an Icache miss
system.switch_cpus_10.fetch.predictedBranches      5922437                       # Number of branches that fetch has predicted taken
system.switch_cpus_10.fetch.rate             1.626423                       # Number of inst fetches per cycle
system.switch_cpus_10.fetch.rateDist::samples     40517949                       # Number of instructions fetched each cycle (Total)
system.switch_cpus_10.fetch.rateDist::mean     2.944863                       # Number of instructions fetched each cycle (Total)
system.switch_cpus_10.fetch.rateDist::stdev     3.513170                       # Number of instructions fetched each cycle (Total)
system.switch_cpus_10.fetch.rateDist::underflows            0      0.00%      0.00% # Number of instructions fetched each cycle (Total)
system.switch_cpus_10.fetch.rateDist::0      21620321     53.36%     53.36% # Number of instructions fetched each cycle (Total)
system.switch_cpus_10.fetch.rateDist::1        767122      1.89%     55.25% # Number of instructions fetched each cycle (Total)
system.switch_cpus_10.fetch.rateDist::2       1234679      3.05%     58.30% # Number of instructions fetched each cycle (Total)
system.switch_cpus_10.fetch.rateDist::3        844989      2.09%     60.39% # Number of instructions fetched each cycle (Total)
system.switch_cpus_10.fetch.rateDist::4       2215022      5.47%     65.85% # Number of instructions fetched each cycle (Total)
system.switch_cpus_10.fetch.rateDist::5        640533      1.58%     67.43% # Number of instructions fetched each cycle (Total)
system.switch_cpus_10.fetch.rateDist::6       1677656      4.14%     71.57% # Number of instructions fetched each cycle (Total)
system.switch_cpus_10.fetch.rateDist::7        721363      1.78%     73.35% # Number of instructions fetched each cycle (Total)
system.switch_cpus_10.fetch.rateDist::8      10796264     26.65%    100.00% # Number of instructions fetched each cycle (Total)
system.switch_cpus_10.fetch.rateDist::overflows            0      0.00%    100.00% # Number of instructions fetched each cycle (Total)
system.switch_cpus_10.fetch.rateDist::min_value            0                       # Number of instructions fetched each cycle (Total)
system.switch_cpus_10.fetch.rateDist::max_value            8                       # Number of instructions fetched each cycle (Total)
system.switch_cpus_10.fetch.rateDist::total     40517949                       # Number of instructions fetched each cycle (Total)
system.switch_cpus_10.fp_regfile_reads       29347753                       # number of floating regfile reads
system.switch_cpus_10.fp_regfile_writes      16939268                       # number of floating regfile writes
system.switch_cpus_10.idleCycles                 1983                       # Total number of cycles that the CPU has spent unscheduled due to idling
system.switch_cpus_10.iew.branchMispredicts       849867                       # Number of branch mispredicts detected at execute
system.switch_cpus_10.iew.exec_branches       9423717                       # Number of branches executed
system.switch_cpus_10.iew.exec_nop                  0                       # number of nop insts executed
system.switch_cpus_10.iew.exec_rate          2.477825                       # Inst execution rate
system.switch_cpus_10.iew.exec_refs          29578145                       # number of memory reference insts executed
system.switch_cpus_10.iew.exec_stores         9188540                       # Number of stores executed
system.switch_cpus_10.iew.exec_swp                  0                       # number of swp insts executed
system.switch_cpus_10.iew.iewBlockCycles      1818007                       # Number of cycles IEW is blocking
system.switch_cpus_10.iew.iewDispLoadInsts     21490849                       # Number of dispatched load instructions
system.switch_cpus_10.iew.iewDispNonSpecInsts            0                       # Number of dispatched non-speculative instructions
system.switch_cpus_10.iew.iewDispSquashedInsts       609868                       # Number of squashed instructions skipped by dispatch
system.switch_cpus_10.iew.iewDispStoreInsts      9915316                       # Number of dispatched store instructions
system.switch_cpus_10.iew.iewDispatchedInsts    106856419                       # Number of instructions dispatched to IQ
system.switch_cpus_10.iew.iewExecLoadInsts     20389605                       # Number of load instructions executed
system.switch_cpus_10.iew.iewExecSquashedInsts      1466578                       # Number of squashed instructions skipped in execute
system.switch_cpus_10.iew.iewExecutedInsts    100401286                       # Number of executed instructions
system.switch_cpus_10.iew.iewIQFullEvents         5381                       # Number of times the IQ has become full, causing a stall
system.switch_cpus_10.iew.iewIdleCycles             0                       # Number of cycles IEW is idle
system.switch_cpus_10.iew.iewLSQFullEvents        12715                       # Number of times the LSQ has become full, causing a stall
system.switch_cpus_10.iew.iewSquashCycles       725972                       # Number of cycles IEW is squashing
system.switch_cpus_10.iew.iewUnblockCycles        19773                       # Number of cycles IEW is unblocking
system.switch_cpus_10.iew.lsq.thread0.blockedLoads            0                       # Number of blocked loads due to partial load-store forwarding
system.switch_cpus_10.iew.lsq.thread0.cacheBlocked         3476                       # Number of times an access to memory failed due to the cache being blocked
system.switch_cpus_10.iew.lsq.thread0.forwLoads      2845188                       # Number of loads that had data forwarded from stores
system.switch_cpus_10.iew.lsq.thread0.ignoredResponses        20843                       # Number of memory responses ignored because the instruction is squashed
system.switch_cpus_10.iew.lsq.thread0.invAddrLoads            0                       # Number of loads ignored due to an invalid address
system.switch_cpus_10.iew.lsq.thread0.invAddrSwpfs            0                       # Number of software prefetches ignored due to an invalid address
system.switch_cpus_10.iew.lsq.thread0.memOrderViolation         2316                       # Number of memory ordering violations
system.switch_cpus_10.iew.lsq.thread0.rescheduledLoads         7364                       # Number of loads that were rescheduled
system.switch_cpus_10.iew.lsq.thread0.squashedLoads      3123360                       # Number of loads squashed
system.switch_cpus_10.iew.lsq.thread0.squashedStores      1719431                       # Number of stores squashed
system.switch_cpus_10.iew.memOrderViolationEvents         2316                       # Number of memory order violations
system.switch_cpus_10.iew.predictedNotTakenIncorrect       676175                       # Number of branches that were predicted not taken incorrectly
system.switch_cpus_10.iew.predictedTakenIncorrect       173692                       # Number of branches that were predicted taken incorrectly
system.switch_cpus_10.iew.wb_consumers      111529396                       # num instructions consuming a value
system.switch_cpus_10.iew.wb_count           99320246                       # cumulative count of insts written-back
system.switch_cpus_10.iew.wb_fanout          0.611246                       # average fanout of values written-back
system.switch_cpus_10.iew.wb_producers       68171915                       # num instructions producing a value
system.switch_cpus_10.iew.wb_rate            2.451145                       # insts written-back per cycle
system.switch_cpus_10.iew.wb_sent            99516605                       # cumulative count of insts sent to commit
system.switch_cpus_10.int_regfile_reads     138824301                       # number of integer regfile reads
system.switch_cpus_10.int_regfile_writes     62456025                       # number of integer regfile writes
system.switch_cpus_10.ipc                    1.233961                       # IPC: Instructions Per Cycle
system.switch_cpus_10.ipc_total              1.233961                       # IPC: Total IPC of All Threads
system.switch_cpus_10.iq.FU_type_0::No_OpClass       646824      0.63%      0.63% # Type of FU issued
system.switch_cpus_10.iq.FU_type_0::IntAlu     61342763     60.22%     60.85% # Type of FU issued
system.switch_cpus_10.iq.FU_type_0::IntMult       215525      0.21%     61.06% # Type of FU issued
system.switch_cpus_10.iq.FU_type_0::IntDiv            0      0.00%     61.06% # Type of FU issued
system.switch_cpus_10.iq.FU_type_0::FloatAdd       313403      0.31%     61.37% # Type of FU issued
system.switch_cpus_10.iq.FU_type_0::FloatCmp            0      0.00%     61.37% # Type of FU issued
system.switch_cpus_10.iq.FU_type_0::FloatCvt            0      0.00%     61.37% # Type of FU issued
system.switch_cpus_10.iq.FU_type_0::FloatMult            0      0.00%     61.37% # Type of FU issued
system.switch_cpus_10.iq.FU_type_0::FloatMultAcc            0      0.00%     61.37% # Type of FU issued
system.switch_cpus_10.iq.FU_type_0::FloatDiv            0      0.00%     61.37% # Type of FU issued
system.switch_cpus_10.iq.FU_type_0::FloatMisc            0      0.00%     61.37% # Type of FU issued
system.switch_cpus_10.iq.FU_type_0::FloatSqrt            0      0.00%     61.37% # Type of FU issued
system.switch_cpus_10.iq.FU_type_0::SimdAdd            0      0.00%     61.37% # Type of FU issued
system.switch_cpus_10.iq.FU_type_0::SimdAddAcc            0      0.00%     61.37% # Type of FU issued
system.switch_cpus_10.iq.FU_type_0::SimdAlu       641389      0.63%     62.00% # Type of FU issued
system.switch_cpus_10.iq.FU_type_0::SimdCmp            0      0.00%     62.00% # Type of FU issued
system.switch_cpus_10.iq.FU_type_0::SimdCvt            0      0.00%     62.00% # Type of FU issued
system.switch_cpus_10.iq.FU_type_0::SimdMisc        18654      0.02%     62.02% # Type of FU issued
system.switch_cpus_10.iq.FU_type_0::SimdMult            0      0.00%     62.02% # Type of FU issued
system.switch_cpus_10.iq.FU_type_0::SimdMultAcc            0      0.00%     62.02% # Type of FU issued
system.switch_cpus_10.iq.FU_type_0::SimdShift            0      0.00%     62.02% # Type of FU issued
system.switch_cpus_10.iq.FU_type_0::SimdShiftAcc            0      0.00%     62.02% # Type of FU issued
system.switch_cpus_10.iq.FU_type_0::SimdDiv            0      0.00%     62.02% # Type of FU issued
system.switch_cpus_10.iq.FU_type_0::SimdSqrt            0      0.00%     62.02% # Type of FU issued
system.switch_cpus_10.iq.FU_type_0::SimdFloatAdd      3456509      3.39%     65.41% # Type of FU issued
system.switch_cpus_10.iq.FU_type_0::SimdFloatAlu            0      0.00%     65.41% # Type of FU issued
system.switch_cpus_10.iq.FU_type_0::SimdFloatCmp        11561      0.01%     65.42% # Type of FU issued
system.switch_cpus_10.iq.FU_type_0::SimdFloatCvt      1501930      1.47%     66.90% # Type of FU issued
system.switch_cpus_10.iq.FU_type_0::SimdFloatDiv       129964      0.13%     67.03% # Type of FU issued
system.switch_cpus_10.iq.FU_type_0::SimdFloatMisc            0      0.00%     67.03% # Type of FU issued
system.switch_cpus_10.iq.FU_type_0::SimdFloatMult      3465497      3.40%     70.43% # Type of FU issued
system.switch_cpus_10.iq.FU_type_0::SimdFloatMultAcc            0      0.00%     70.43% # Type of FU issued
system.switch_cpus_10.iq.FU_type_0::SimdFloatSqrt        14411      0.01%     70.44% # Type of FU issued
system.switch_cpus_10.iq.FU_type_0::SimdReduceAdd            0      0.00%     70.44% # Type of FU issued
system.switch_cpus_10.iq.FU_type_0::SimdReduceAlu            0      0.00%     70.44% # Type of FU issued
system.switch_cpus_10.iq.FU_type_0::SimdReduceCmp            0      0.00%     70.44% # Type of FU issued
system.switch_cpus_10.iq.FU_type_0::SimdFloatReduceAdd            0      0.00%     70.44% # Type of FU issued
system.switch_cpus_10.iq.FU_type_0::SimdFloatReduceCmp            0      0.00%     70.44% # Type of FU issued
system.switch_cpus_10.iq.FU_type_0::SimdAes            0      0.00%     70.44% # Type of FU issued
system.switch_cpus_10.iq.FU_type_0::SimdAesMix            0      0.00%     70.44% # Type of FU issued
system.switch_cpus_10.iq.FU_type_0::SimdSha1Hash            0      0.00%     70.44% # Type of FU issued
system.switch_cpus_10.iq.FU_type_0::SimdSha1Hash2            0      0.00%     70.44% # Type of FU issued
system.switch_cpus_10.iq.FU_type_0::SimdSha256Hash            0      0.00%     70.44% # Type of FU issued
system.switch_cpus_10.iq.FU_type_0::SimdSha256Hash2            0      0.00%     70.44% # Type of FU issued
system.switch_cpus_10.iq.FU_type_0::SimdShaSigma2            0      0.00%     70.44% # Type of FU issued
system.switch_cpus_10.iq.FU_type_0::SimdShaSigma3            0      0.00%     70.44% # Type of FU issued
system.switch_cpus_10.iq.FU_type_0::SimdPredAlu            0      0.00%     70.44% # Type of FU issued
system.switch_cpus_10.iq.FU_type_0::MemRead     12808984     12.57%     83.02% # Type of FU issued
system.switch_cpus_10.iq.FU_type_0::MemWrite      7931627      7.79%     90.80% # Type of FU issued
system.switch_cpus_10.iq.FU_type_0::FloatMemRead      7944838      7.80%     98.60% # Type of FU issued
system.switch_cpus_10.iq.FU_type_0::FloatMemWrite      1423988      1.40%    100.00% # Type of FU issued
system.switch_cpus_10.iq.FU_type_0::IprAccess            0      0.00%    100.00% # Type of FU issued
system.switch_cpus_10.iq.FU_type_0::InstPrefetch            0      0.00%    100.00% # Type of FU issued
system.switch_cpus_10.iq.FU_type_0::total    101867867                       # Type of FU issued
system.switch_cpus_10.iq.fp_alu_accesses     20839574                       # Number of floating point alu accesses
system.switch_cpus_10.iq.fp_inst_queue_reads     41002414                       # Number of floating instruction queue reads
system.switch_cpus_10.iq.fp_inst_queue_wakeup_accesses     19548808                       # Number of floating instruction queue wakeup accesses
system.switch_cpus_10.iq.fp_inst_queue_writes     23428812                       # Number of floating instruction queue writes
system.switch_cpus_10.iq.fu_busy_cnt          1154565                       # FU busy when requested
system.switch_cpus_10.iq.fu_busy_rate        0.011334                       # FU busy rate (busy events/executed inst)
system.switch_cpus_10.iq.fu_full::No_OpClass            0      0.00%      0.00% # attempts to use FU when none available
system.switch_cpus_10.iq.fu_full::IntAlu       199555     17.28%     17.28% # attempts to use FU when none available
system.switch_cpus_10.iq.fu_full::IntMult            0      0.00%     17.28% # attempts to use FU when none available
system.switch_cpus_10.iq.fu_full::IntDiv            0      0.00%     17.28% # attempts to use FU when none available
system.switch_cpus_10.iq.fu_full::FloatAdd         2746      0.24%     17.52% # attempts to use FU when none available
system.switch_cpus_10.iq.fu_full::FloatCmp            0      0.00%     17.52% # attempts to use FU when none available
system.switch_cpus_10.iq.fu_full::FloatCvt            0      0.00%     17.52% # attempts to use FU when none available
system.switch_cpus_10.iq.fu_full::FloatMult            0      0.00%     17.52% # attempts to use FU when none available
system.switch_cpus_10.iq.fu_full::FloatMultAcc            0      0.00%     17.52% # attempts to use FU when none available
system.switch_cpus_10.iq.fu_full::FloatDiv            0      0.00%     17.52% # attempts to use FU when none available
system.switch_cpus_10.iq.fu_full::FloatMisc            0      0.00%     17.52% # attempts to use FU when none available
system.switch_cpus_10.iq.fu_full::FloatSqrt            0      0.00%     17.52% # attempts to use FU when none available
system.switch_cpus_10.iq.fu_full::SimdAdd            0      0.00%     17.52% # attempts to use FU when none available
system.switch_cpus_10.iq.fu_full::SimdAddAcc            0      0.00%     17.52% # attempts to use FU when none available
system.switch_cpus_10.iq.fu_full::SimdAlu         4181      0.36%     17.88% # attempts to use FU when none available
system.switch_cpus_10.iq.fu_full::SimdCmp            0      0.00%     17.88% # attempts to use FU when none available
system.switch_cpus_10.iq.fu_full::SimdCvt            0      0.00%     17.88% # attempts to use FU when none available
system.switch_cpus_10.iq.fu_full::SimdMisc            1      0.00%     17.88% # attempts to use FU when none available
system.switch_cpus_10.iq.fu_full::SimdMult            0      0.00%     17.88% # attempts to use FU when none available
[...]
system.cpu1.l2cache.tags.tagsinuse          52.124072                       # Cycle average of tags in use
system.cpu1.l2cache.tags.total_refs             75853                       # Total number of references to valid blocks.
system.cpu1.l2cache.tags.sampled_refs           20751                       # Sample count of references to valid blocks.
system.cpu1.l2cache.tags.avg_refs            3.655390                       # Average number of references to valid blocks.
system.cpu1.l2cache.tags.warmup_cycle    1293351708033                       # Cycle when the warmup percentage was hit.
system.cpu1.l2cache.tags.occ_blocks::.cpu1.inst     0.003846                       # Average occupied blocks per requestor
system.cpu1.l2cache.tags.occ_blocks::.cpu1.data     0.014728                       # Average occupied blocks per requestor
system.cpu1.l2cache.tags.occ_blocks::.cpu1.dcache.prefetcher     0.068047                       # Average occupied blocks per requestor
system.cpu1.l2cache.tags.occ_blocks::.switch_cpus1.inst     0.730333                       # Average occupied blocks per requestor
system.cpu1.l2cache.tags.occ_blocks::.switch_cpus1.data     8.795009                       # Average occupied blocks per requestor
system.cpu1.l2cache.tags.occ_blocks::.switch_cpus_11.inst     0.192538                       # Average occupied blocks per requestor
system.cpu1.l2cache.tags.occ_blocks::.switch_cpus_11.data    42.319572                       # Average occupied blocks per requestor
system.cpu1.l2cache.tags.occ_percent::.cpu1.inst     0.000001                       # Average percentage of cache occupancy
system.cpu1.l2cache.tags.occ_percent::.cpu1.data     0.000004                       # Average percentage of cache occupancy
system.cpu1.l2cache.tags.occ_percent::.cpu1.dcache.prefetcher     0.000017                       # Average percentage of cache occupancy
system.cpu1.l2cache.tags.occ_percent::.switch_cpus1.inst     0.000178                       # Average percentage of cache occupancy
system.cpu1.l2cache.tags.occ_percent::.switch_cpus1.data     0.002147                       # Average percentage of cache occupancy
system.cpu1.l2cache.tags.occ_percent::.switch_cpus_11.inst     0.000047                       # Average percentage of cache occupancy
system.cpu1.l2cache.tags.occ_percent::.switch_cpus_11.data     0.010332                       # Average percentage of cache occupancy
system.cpu1.l2cache.tags.occ_percent::total     0.012726                       # Average percentage of cache occupancy
system.cpu1.l2cache.tags.occ_task_id_blocks::1022            9                       # Occupied blocks per task id
system.cpu1.l2cache.tags.occ_task_id_blocks::1024         4087                       # Occupied blocks per task id
system.cpu1.l2cache.tags.age_task_id_blocks_1022::2            4                       # Occupied blocks per task id
system.cpu1.l2cache.tags.age_task_id_blocks_1022::3            1                       # Occupied blocks per task id
system.cpu1.l2cache.tags.age_task_id_blocks_1022::4            4                       # Occupied blocks per task id
system.cpu1.l2cache.tags.age_task_id_blocks_1024::0           10                       # Occupied blocks per task id
system.cpu1.l2cache.tags.age_task_id_blocks_1024::1          114                       # Occupied blocks per task id
system.cpu1.l2cache.tags.age_task_id_blocks_1024::2         1138                       # Occupied blocks per task id
system.cpu1.l2cache.tags.age_task_id_blocks_1024::3         2316                       # Occupied blocks per task id
system.cpu1.l2cache.tags.age_task_id_blocks_1024::4          509                       # Occupied blocks per task id
system.cpu1.l2cache.tags.occ_task_id_percent::1022     0.002197                       # Percentage of cache occupancy per task id
system.cpu1.l2cache.tags.occ_task_id_percent::1024     0.997803                       # Percentage of cache occupancy per task id
system.cpu1.l2cache.tags.tag_accesses         1234463                       # Number of tag accesses
system.cpu1.l2cache.tags.data_accesses        1234463                       # Number of data accesses
system.cpu1.toL2Bus.pwrStateResidencyTicks::UNDEFINED 1312684813404                       # Cumulative time (in ticks) in various power states
system.cpu1.toL2Bus.trans_dist::ReadResp        38235                       # Transaction distribution
system.cpu1.toL2Bus.trans_dist::WritebackDirty          124                       # Transaction distribution
system.cpu1.toL2Bus.trans_dist::CleanEvict        54075                       # Transaction distribution
system.cpu1.toL2Bus.trans_dist::ReadExReq          106                       # Transaction distribution
system.cpu1.toL2Bus.trans_dist::ReadExResp          106                       # Transaction distribution
system.cpu1.toL2Bus.trans_dist::ReadCleanReq          285                       # Transaction distribution
system.cpu1.toL2Bus.trans_dist::ReadSharedReq        37951                       # Transaction distribution
system.cpu1.toL2Bus.pkt_count_system.cpu1.icache.mem_side::system.cpu1.l2cache.cpu_side          570                       # Packet count per connected master and slave (bytes)
system.cpu1.toL2Bus.pkt_count_system.cpu1.dcache.mem_side::system.cpu1.l2cache.cpu_side       113657                       # Packet count per connected master and slave (bytes)
system.cpu1.toL2Bus.pkt_count::total           114227                       # Packet count per connected master and slave (bytes)
system.cpu1.toL2Bus.pkt_size_system.cpu1.icache.mem_side::system.cpu1.l2cache.cpu_side        18240                       # Cumulative packet size per connected master and slave (bytes)
system.cpu1.toL2Bus.pkt_size_system.cpu1.dcache.mem_side::system.cpu1.l2cache.cpu_side      2443072                       # Cumulative packet size per connected master and slave (bytes)
system.cpu1.toL2Bus.pkt_size::total           2461312                       # Cumulative packet size per connected master and slave (bytes)
system.cpu1.toL2Bus.snoops                      16655                       # Total snoops (count)
system.cpu1.toL2Bus.snoopTraffic                  448                       # Total snoop traffic (bytes)
system.cpu1.toL2Bus.snoop_fanout::samples        54997                       # Request fanout histogram
system.cpu1.toL2Bus.snoop_fanout::mean       0.006473                       # Request fanout histogram
system.cpu1.toL2Bus.snoop_fanout::stdev      0.080195                       # Request fanout histogram
system.cpu1.toL2Bus.snoop_fanout::underflows            0      0.00%      0.00% # Request fanout histogram
system.cpu1.toL2Bus.snoop_fanout::0             54641     99.35%     99.35% # Request fanout histogram
system.cpu1.toL2Bus.snoop_fanout::1               356      0.65%    100.00% # Request fanout histogram
system.cpu1.toL2Bus.snoop_fanout::2                 0      0.00%    100.00% # Request fanout histogram
system.cpu1.toL2Bus.snoop_fanout::3                 0      0.00%    100.00% # Request fanout histogram
system.cpu1.toL2Bus.snoop_fanout::4                 0      0.00%    100.00% # Request fanout histogram
system.cpu1.toL2Bus.snoop_fanout::overflows            0      0.00%    100.00% # Request fanout histogram
system.cpu1.toL2Bus.snoop_fanout::min_value            0                       # Request fanout histogram
system.cpu1.toL2Bus.snoop_fanout::max_value            1                       # Request fanout histogram
system.cpu1.toL2Bus.snoop_fanout::total         54997                       # Request fanout histogram
system.cpu1.toL2Bus.reqLayer0.occupancy      31765334                       # Layer occupancy (ticks)
system.cpu1.toL2Bus.reqLayer0.utilization          0.2                       # Layer utilization (%)
system.cpu1.toL2Bus.respLayer1.occupancy     47606805                       # Layer occupancy (ticks)
system.cpu1.toL2Bus.respLayer1.utilization          0.2                       # Layer utilization (%)
system.cpu1.toL2Bus.respLayer0.occupancy       355284                       # Layer occupancy (ticks)
system.cpu1.toL2Bus.respLayer0.utilization          0.0                       # Layer utilization (%)
system.switch_cpus_10.pwrStateResidencyTicks::OFF  19333105788                       # Cumulative time (in ticks) in various power states
system.switch_cpus_10.dtb.walker.pwrStateResidencyTicks::UNDEFINED 1312684813404                       # Cumulative time (in ticks) in various power states
system.switch_cpus_10.itb.walker.pwrStateResidencyTicks::UNDEFINED 1312684813404                       # Cumulative time (in ticks) in various power states
system.switch_cpus_11.pwrStateResidencyTicks::OFF  19333105788                       # Cumulative time (in ticks) in various power states
system.switch_cpus_11.dtb.walker.pwrStateResidencyTicks::UNDEFINED 1312684813404                       # Cumulative time (in ticks) in various power states
system.switch_cpus_11.itb.walker.pwrStateResidencyTicks::UNDEFINED 1312684813404                       # Cumulative time (in ticks) in various power states
system.cpu_voltage_domain.voltage                   1                       # Voltage in Volts
system.switch_cpus1.numPwrStateTransitions            1                       # Number of power state transitions
system.switch_cpus1.pwrStateResidencyTicks::UNDEFINED 1293351707616                       # Cumulative time (in ticks) in various power states
system.switch_cpus1.pwrStateResidencyTicks::OFF  19333105788                       # Cumulative time (in ticks) in various power states
system.switch_cpus1.dtb.walker.pwrStateResidencyTicks::UNDEFINED 1312684813404                       # Cumulative time (in ticks) in various power states
system.switch_cpus1.itb.walker.pwrStateResidencyTicks::UNDEFINED 1312684813404                       # Cumulative time (in ticks) in various power states
system.mem_ctrls.pwrStateResidencyTicks::UNDEFINED 1312684813404                       # Cumulative time (in ticks) in various power states
system.mem_ctrls.bytes_read::.cpu0.inst            64                       # Number of bytes read from this memory
system.mem_ctrls.bytes_read::.cpu0.data            64                       # Number of bytes read from this memory
system.mem_ctrls.bytes_read::.cpu0.dcache.prefetcher         5056                       # Number of bytes read from this memory
system.mem_ctrls.bytes_read::.cpu1.inst            64                       # Number of bytes read from this memory
system.mem_ctrls.bytes_read::.cpu1.data            64                       # Number of bytes read from this memory
system.mem_ctrls.bytes_read::.cpu1.dcache.prefetcher          768                       # Number of bytes read from this memory
system.mem_ctrls.bytes_read::.switch_cpus0.inst        22336                       # Number of bytes read from this memory
system.mem_ctrls.bytes_read::.switch_cpus0.data        31488                       # Number of bytes read from this memory
system.mem_ctrls.bytes_read::.switch_cpus1.inst        12672                       # Number of bytes read from this memory
system.mem_ctrls.bytes_read::.switch_cpus1.data        78784                       # Number of bytes read from this memory
system.mem_ctrls.bytes_read::.switch_cpus_10.inst        12992                       # Number of bytes read from this memory
system.mem_ctrls.bytes_read::.switch_cpus_10.data         9472                       # Number of bytes read from this memory
system.mem_ctrls.bytes_read::.switch_cpus_11.inst         5504                       # Number of bytes read from this memory
system.mem_ctrls.bytes_read::.switch_cpus_11.data      1229568                       # Number of bytes read from this memory
system.mem_ctrls.bytes_read::total            1408896                       # Number of bytes read from this memory
system.mem_ctrls.bytes_inst_read::.cpu0.inst           64                       # Number of instructions bytes read from this memory
system.mem_ctrls.bytes_inst_read::.cpu1.inst           64                       # Number of instructions bytes read from this memory
system.mem_ctrls.bytes_inst_read::.switch_cpus0.inst        22336                       # Number of instructions bytes read from this memory
system.mem_ctrls.bytes_inst_read::.switch_cpus1.inst        12672                       # Number of instructions bytes read from this memory
system.mem_ctrls.bytes_inst_read::.switch_cpus_10.inst        12992                       # Number of instructions bytes read from this memory
system.mem_ctrls.bytes_inst_read::.switch_cpus_11.inst         5504                       # Number of instructions bytes read from this memory
system.mem_ctrls.bytes_inst_read::total         53632                       # Number of instructions bytes read from this memory
system.mem_ctrls.num_reads::.cpu0.inst              1                       # Number of read requests responded to by this memory
system.mem_ctrls.num_reads::.cpu0.data              1                       # Number of read requests responded to by this memory
system.mem_ctrls.num_reads::.cpu0.dcache.prefetcher           79                       # Number of read requests responded to by this memory
system.mem_ctrls.num_reads::.cpu1.inst              1                       # Number of read requests responded to by this memory
system.mem_ctrls.num_reads::.cpu1.data              1                       # Number of read requests responded to by this memory
system.mem_ctrls.num_reads::.cpu1.dcache.prefetcher           12                       # Number of read requests responded to by this memory
system.mem_ctrls.num_reads::.switch_cpus0.inst          349                       # Number of read requests responded to by this memory
system.mem_ctrls.num_reads::.switch_cpus0.data          492                       # Number of read requests responded to by this memory
system.mem_ctrls.num_reads::.switch_cpus1.inst          198                       # Number of read requests responded to by this memory
system.mem_ctrls.num_reads::.switch_cpus1.data         1231                       # Number of read requests responded to by this memory
system.mem_ctrls.num_reads::.switch_cpus_10.inst          203                       # Number of read requests responded to by this memory
system.mem_ctrls.num_reads::.switch_cpus_10.data          148                       # Number of read requests responded to by this memory
system.mem_ctrls.num_reads::.switch_cpus_11.inst           86                       # Number of read requests responded to by this memory
system.mem_ctrls.num_reads::.switch_cpus_11.data        19212                       # Number of read requests responded to by this memory
system.mem_ctrls.num_reads::total               22014                       # Number of read requests responded to by this memory
system.mem_ctrls.bw_read::.cpu0.inst             3310                       # Total read bandwidth from this memory (bytes/s)
system.mem_ctrls.bw_read::.cpu0.data             3310                       # Total read bandwidth from this memory (bytes/s)
system.mem_ctrls.bw_read::.cpu0.dcache.prefetcher       261520                       # Total read bandwidth from this memory (bytes/s)
system.mem_ctrls.bw_read::.cpu1.inst             3310                       # Total read bandwidth from this memory (bytes/s)
system.mem_ctrls.bw_read::.cpu1.data             3310                       # Total read bandwidth from this memory (bytes/s)
system.mem_ctrls.bw_read::.cpu1.dcache.prefetcher        39725                       # Total read bandwidth from this memory (bytes/s)
system.mem_ctrls.bw_read::.switch_cpus0.inst      1155324                       # Total read bandwidth from this memory (bytes/s)
system.mem_ctrls.bw_read::.switch_cpus0.data      1628709                       # Total read bandwidth from this memory (bytes/s)
system.mem_ctrls.bw_read::.switch_cpus1.inst       655456                       # Total read bandwidth from this memory (bytes/s)
system.mem_ctrls.bw_read::.switch_cpus1.data      4075082                       # Total read bandwidth from this memory (bytes/s)
system.mem_ctrls.bw_read::.switch_cpus_10.inst       672008                       # Total read bandwidth from this memory (bytes/s)
system.mem_ctrls.bw_read::.switch_cpus_10.data       489937                       # Total read bandwidth from this memory (bytes/s)
system.mem_ctrls.bw_read::.switch_cpus_11.inst       284693                       # Total read bandwidth from this memory (bytes/s)
system.mem_ctrls.bw_read::.switch_cpus_11.data     63599093                       # Total read bandwidth from this memory (bytes/s)
system.mem_ctrls.bw_read::total              72874789                       # Total read bandwidth from this memory (bytes/s)
system.mem_ctrls.bw_inst_read::.cpu0.inst         3310                       # Instruction read bandwidth from this memory (bytes/s)
system.mem_ctrls.bw_inst_read::.cpu1.inst         3310                       # Instruction read bandwidth from this memory (bytes/s)
system.mem_ctrls.bw_inst_read::.switch_cpus0.inst      1155324                       # Instruction read bandwidth from this memory (bytes/s)
system.mem_ctrls.bw_inst_read::.switch_cpus1.inst       655456                       # Instruction read bandwidth from this memory (bytes/s)
system.mem_ctrls.bw_inst_read::.switch_cpus_10.inst       672008                       # Instruction read bandwidth from this memory (bytes/s)
system.mem_ctrls.bw_inst_read::.switch_cpus_11.inst       284693                       # Instruction read bandwidth from this memory (bytes/s)
system.mem_ctrls.bw_inst_read::total          2774102                       # Instruction read bandwidth from this memory (bytes/s)
system.mem_ctrls.bw_total::.cpu0.inst            3310                       # Total bandwidth to/from this memory (bytes/s)
system.mem_ctrls.bw_total::.cpu0.data            3310                       # Total bandwidth to/from this memory (bytes/s)
system.mem_ctrls.bw_total::.cpu0.dcache.prefetcher       261520                       # Total bandwidth to/from this memory (bytes/s)
system.mem_ctrls.bw_total::.cpu1.inst            3310                       # Total bandwidth to/from this memory (bytes/s)
system.mem_ctrls.bw_total::.cpu1.data            3310                       # Total bandwidth to/from this memory (bytes/s)
system.mem_ctrls.bw_total::.cpu1.dcache.prefetcher        39725                       # Total bandwidth to/from this memory (bytes/s)
system.mem_ctrls.bw_total::.switch_cpus0.inst      1155324                       # Total bandwidth to/from this memory (bytes/s)
system.mem_ctrls.bw_total::.switch_cpus0.data      1628709                       # Total bandwidth to/from this memory (bytes/s)
system.mem_ctrls.bw_total::.switch_cpus1.inst       655456                       # Total bandwidth to/from this memory (bytes/s)
system.mem_ctrls.bw_total::.switch_cpus1.data      4075082                       # Total bandwidth to/from this memory (bytes/s)
system.mem_ctrls.bw_total::.switch_cpus_10.inst       672008                       # Total bandwidth to/from this memory (bytes/s)
system.mem_ctrls.bw_total::.switch_cpus_10.data       489937                       # Total bandwidth to/from this memory (bytes/s)
system.mem_ctrls.bw_total::.switch_cpus_11.inst       284693                       # Total bandwidth to/from this memory (bytes/s)
system.mem_ctrls.bw_total::.switch_cpus_11.data     63599093                       # Total bandwidth to/from this memory (bytes/s)
system.mem_ctrls.bw_total::total             72874789                       # Total bandwidth to/from this memory (bytes/s)
system.cpu_clk_domain.clock                       417                       # Clock period in ticks

---------- End Simulation Statistics   ----------
